complex
  PyMOL3.0          3D                             0

 17 18  0  0  0  0  0  0  0  0999 V2000
  -10.2600  -20.1600   -0.7290 Cl  0  0  0  0  0  0  0  0  0  0  0  0
  -11.7570  -20.7480    3.2290 C   0  0  0  0  0  0  0  0  0  0  0  0
  -13.4090  -22.3410   -1.4710 C   0  0  0  0  0  0  0  0  0  0  0  0
  -12.2960  -21.5560   -1.6240 C   0  0  0  0  0  0  0  0  0  0  0  0
  -11.6170  -21.1040   -0.4990 C   0  0  0  0  0  0  0  0  0  0  0  0
  -11.1980  -20.2080    5.5010 C   0  0  0  0  0  0  0  0  0  0  0  0
  -10.4450  -21.2640    6.2590 C   0  0  0  0  0  0  0  0  0  0  0  0
  -10.9500  -22.3860    6.8640 C   0  0  0  0  0  0  0  0  0  0  0  0
   -9.9140  -23.0850    7.4060 C   0  0  0  0  0  0  0  0  0  0  0  0
   -8.7630  -22.3520    7.1450 C   0  0  0  0  0  0  0  0  0  0  0  0
  -12.0610  -21.4660    0.8280 C   0  0  0  0  0  0  0  0  0  0  0  0
  -13.1830  -22.2640    0.8770 C   0  0  0  0  0  0  0  0  0  0  0  0
  -13.8460  -22.6980   -0.2200 C   0  0  0  0  0  0  0  0  0  0  0  0
  -10.9080  -20.2350    4.0970 N   0  0  0  0  0  0  0  0  0  0  0  0
  -11.3360  -21.0290    1.9350 N   0  0  0  0  0  0  0  0  0  0  0  0
   -9.0970  -21.2540    6.4790 O   0  0  0  0  0  0  0  0  0  0  0  0
  -13.3010  -21.1090    3.6980 S   0  0  0  0  0  0  0  0  0  0  0  0
  1  5  1  0  0  0  0
  2 14  1  0  0  0  0
  2 15  1  0  0  0  0
  2 17  1  0  0  0  0
  3  4  4  0  0  0  0
  3 13  4  0  0  0  0
  4  5  4  0  0  0  0
  5 11  4  0  0  0  0
  6  7  1  0  0  0  0
  6 14  1  0  0  0  0
  7  8  4  0  0  0  0
  7 16  4  0  0  0  0
  8  9  4  0  0  0  0
  9 10  4  0  0  0  0
 10 16  4  0  0  0  0
 11 12  4  0  0  0  0
 11 15  1  0  0  0  0
 12 13  4  0  0  0  0
M  END
$$$$
