complex
  PyMOL3.0          3D                             0

 26 29  0  0  0  0  0  0  0  0999 V2000
    9.3470  -51.1890  -19.5240 C   0  0  0  0  0  0  0  0  0  0  0  0
    8.6650  -53.2070  -12.2610 C   0  0  0  0  0  0  0  0  0  0  0  0
    9.1640  -52.6110   -9.9560 C   0  0  0  0  0  0  0  0  0  0  0  0
    8.7570  -52.6070   -8.5430 C   0  0  0  0  0  0  0  0  0  0  0  0
    6.9710  -52.8090   -6.9080 C   0  0  0  0  0  0  0  0  0  0  0  0
    7.7240  -52.3450   -5.8580 C   0  0  0  0  0  0  0  0  0  0  0  0
    6.1130  -52.7060   -4.3230 C   0  0  0  0  0  0  0  0  0  0  0  0
    5.2510  -53.1680   -5.2860 C   0  0  0  0  0  0  0  0  0  0  0  0
    5.6970  -53.2100   -6.5850 C   0  0  0  0  0  0  0  0  0  0  0  0
    6.5300  -53.2600   -9.1920 C   0  0  0  0  0  0  0  0  0  0  0  0
    6.9110  -53.2590  -10.5720 C   0  0  0  0  0  0  0  0  0  0  0  0
    9.6740  -52.3690  -18.7120 C   0  0  0  0  0  0  0  0  0  0  0  0
    9.4400  -54.2840  -12.7780 C   0  0  0  0  0  0  0  0  0  0  0  0
    9.7740  -54.3670  -14.1720 C   0  0  0  0  0  0  0  0  0  0  0  0
    9.4270  -52.3390  -17.3130 C   0  0  0  0  0  0  0  0  0  0  0  0
   10.1900  -53.5090  -19.2790 C   0  0  0  0  0  0  0  0  0  0  0  0
   10.4340  -54.5980  -18.5150 C   0  0  0  0  0  0  0  0  0  0  0  0
   10.1680  -54.5690  -17.1250 C   0  0  0  0  0  0  0  0  0  0  0  0
    9.6570  -53.4290  -16.5320 C   0  0  0  0  0  0  0  0  0  0  0  0
    9.3590  -53.3540  -15.0750 C   0  0  0  0  0  0  0  0  0  0  0  0
    8.6480  -52.2610  -14.5430 C   0  0  0  0  0  0  0  0  0  0  0  0
    8.3080  -52.2140  -13.1790 C   0  0  0  0  0  0  0  0  0  0  0  0
    8.2900  -53.1310  -10.9050 N   0  0  0  0  0  0  0  0  0  0  0  0
    7.4260  -52.8400   -8.2140 N   0  0  0  0  0  0  0  0  0  0  0  0
    7.3060  -52.3020   -4.6230 N   0  0  0  0  0  0  0  0  0  0  0  0
    3.5060  -53.7380   -4.9120 Br  0  0  0  0  0  0  0  0  0  0  0  0
  1 12  1  0  0  0  0
  2 13  4  0  0  0  0
  2 22  4  0  0  0  0
  2 23  1  0  0  0  0
  3  4  4  0  0  0  0
  3 23  4  0  0  0  0
  4 24  4  0  0  0  0
  5  6  4  0  0  0  0
  5  9  4  0  0  0  0
  5 24  1  0  0  0  0
  6 25  4  0  0  0  0
  7  8  4  0  0  0  0
  7 25  4  0  0  0  0
  8  9  4  0  0  0  0
  8 26  1  0  0  0  0
 10 11  4  0  0  0  0
 10 24  4  0  0  0  0
 11 23  4  0  0  0  0
 12 15  4  0  0  0  0
 12 16  4  0  0  0  0
 13 14  4  0  0  0  0
 14 20  4  0  0  0  0
 15 19  4  0  0  0  0
 16 17  4  0  0  0  0
 17 18  4  0  0  0  0
 18 19  4  0  0  0  0
 19 20  1  0  0  0  0
 20 21  4  0  0  0  0
 21 22  4  0  0  0  0
M  END
$$$$
