complex
  PyMOL3.0          3D                             0

 14 14  0  0  0  0  0  0  0  0999 V2000
  -45.0910   39.5540   33.5120 C   0  0  0  0  0  0  0  0  0  0  0  0
  -44.1300   38.4030   33.4290 C   0  0  0  0  0  0  0  0  0  0  0  0
  -41.9430   37.6050   32.8160 C   0  0  0  0  0  0  0  0  0  0  0  0
  -42.0010   37.0270   31.3750 C   0  0  0  0  0  0  0  0  0  0  0  0
  -39.6610   36.4750   31.4810 C   0  0  0  0  0  0  0  0  0  0  0  0
  -38.7330   35.3420   31.2150 C   0  0  0  0  0  0  0  0  0  0  0  0
  -39.5330   37.0300   32.8840 C   0  0  0  0  0  0  0  0  0  0  0  0
  -40.5150   38.1170   33.1180 C   0  0  0  0  0  0  0  0  0  0  0  0
  -42.9580   38.6340   32.9230 N   0  0  0  0  0  0  0  0  0  0  0  0
  -44.4860   37.3500   33.8210 O   0  0  0  0  0  0  0  0  0  0  0  0
  -41.0210   35.9900   31.3290 O   0  0  0  0  0  0  0  0  0  0  0  0
  -39.0950   34.2700   32.0180 O   0  0  0  0  0  0  0  0  0  0  0  0
  -38.2530   37.5140   33.1020 O   0  0  0  0  0  0  0  0  0  0  0  0
  -40.4720   38.5630   34.4340 O   0  0  0  0  0  0  0  0  0  0  0  0
  1  2  1  0  0  0  0
  2  9  1  0  0  0  0
  2 10  2  0  0  0  0
  3  4  1  0  0  0  0
  3  8  1  0  0  0  0
  3  9  1  0  0  0  0
  4 11  1  0  0  0  0
  5  6  1  0  0  0  0
  5  7  1  0  0  0  0
  5 11  1  0  0  0  0
  6 12  1  0  0  0  0
  7  8  1  0  0  0  0
  7 13  1  0  0  0  0
  8 14  1  0  0  0  0
M  END
$$$$
