complex
  PyMOL3.0          3D                             0

 31 34  0  0  0  0  0  0  0  0999 V2000
   16.9120   -2.4040   -9.8910 C   0  0  0  0  0  0  0  0  0  0  0  0
   26.3580   -1.4490   -6.0390 C   0  0  0  0  0  0  0  0  0  0  0  0
   28.5600   -1.8610   -6.0260 C   0  0  0  0  0  0  0  0  0  0  0  0
   29.2780   -3.3750   -4.4890 C   0  0  0  0  0  0  0  0  0  0  0  0
   30.8700   -2.2690   -5.6490 C   0  0  0  0  0  0  0  0  0  0  0  0
   31.8670   -0.7450   -7.2890 C   0  0  0  0  0  0  0  0  0  0  0  0
   30.4860   -0.6950   -7.3370 C   0  0  0  0  0  0  0  0  0  0  0  0
   29.8520    0.1780   -8.2720 C   0  0  0  0  0  0  0  0  0  0  0  0
   29.1140   -0.3430   -9.2960 C   0  0  0  0  0  0  0  0  0  0  0  0
   28.5550    0.4890  -10.1960 C   0  0  0  0  0  0  0  0  0  0  0  0
   28.7580    1.8480  -10.0740 C   0  0  0  0  0  0  0  0  0  0  0  0
   18.0240   -1.9070   -8.9940 C   0  0  0  0  0  0  0  0  0  0  0  0
   29.5190    2.3960   -9.0460 C   0  0  0  0  0  0  0  0  0  0  0  0
   30.0730    1.5310   -8.1380 C   0  0  0  0  0  0  0  0  0  0  0  0
   29.9140   -1.5530   -6.4060 C   0  0  0  0  0  0  0  0  0  0  0  0
   20.7110   -2.4210   -7.5690 C   0  0  0  0  0  0  0  0  0  0  0  0
   19.3780   -2.3040   -7.1300 C   0  0  0  0  0  0  0  0  0  0  0  0
   19.1320   -1.8820   -5.8550 C   0  0  0  0  0  0  0  0  0  0  0  0
   20.1580   -1.5610   -4.9920 C   0  0  0  0  0  0  0  0  0  0  0  0
   21.5030   -1.6260   -5.4100 C   0  0  0  0  0  0  0  0  0  0  0  0
   21.7180   -2.0510   -6.6810 C   0  0  0  0  0  0  0  0  0  0  0  0
   23.9710   -1.6160   -6.3820 C   0  0  0  0  0  0  0  0  0  0  0  0
   25.3020   -1.8930   -6.9960 C   0  0  0  0  0  0  0  0  0  0  0  0
   18.3540   -2.6330   -7.9810 N   0  0  0  0  0  0  0  0  0  0  0  0
   28.2840   -2.7300   -5.1220 N   0  0  0  0  0  0  0  0  0  0  0  0
   30.5450   -3.1550   -4.7140 N   0  0  0  0  0  0  0  0  0  0  0  0
   18.5320   -0.8890   -9.1910 O   0  0  0  0  0  0  0  0  0  0  0  0
   22.9820   -2.1360   -7.1460 O   0  0  0  0  0  0  0  0  0  0  0  0
   27.5480   -1.2790   -6.6370 O   0  0  0  0  0  0  0  0  0  0  0  0
   32.3830   -1.8410   -6.1540 S   0  0  0  0  0  0  0  0  0  0  0  0
   28.2050    2.6800  -10.9460 F   0  0  0  0  0  0  0  0  0  0  0  0
  1 12  1  0  0  0  0
  2 23  1  0  0  0  0
  2 29  1  0  0  0  0
  3 15  4  0  0  0  0
  3 25  4  0  0  0  0
  3 29  1  0  0  0  0
  4 25  4  0  0  0  0
  4 26  4  0  0  0  0
  5 15  4  0  0  0  0
  5 26  4  0  0  0  0
  5 30  4  0  0  0  0
  6  7  4  0  0  0  0
  6 30  4  0  0  0  0
  7  8  1  0  0  0  0
  7 15  4  0  0  0  0
  8  9  1  0  0  0  0
  8 14  1  0  0  0  0
  9 10  1  0  0  0  0
 10 11  1  0  0  0  0
 11 13  1  0  0  0  0
 11 31  1  0  0  0  0
 12 24  1  0  0  0  0
 12 27  2  0  0  0  0
 13 14  1  0  0  0  0
 16 17  4  0  0  0  0
 16 21  4  0  0  0  0
 17 18  4  0  0  0  0
 17 24  1  0  0  0  0
 18 19  4  0  0  0  0
 19 20  4  0  0  0  0
 20 21  4  0  0  0  0
 21 28  1  0  0  0  0
 22 23  1  0  0  0  0
 22 28  1  0  0  0  0
M  END
$$$$
