complex
  PyMOL3.0          3D                             0

 21 23  0  0  0  0  0  0  0  0999 V2000
   49.5580  -17.5380  -13.1070 C   0  0  0  0  0  0  0  0  0  0  0  0
   56.2610  -18.9410  -10.9370 C   0  0  0  0  0  0  0  0  0  0  0  0
   57.3750  -19.8360  -10.6010 C   0  0  0  0  0  0  0  0  0  0  0  0
   58.5810  -18.9820  -10.8260 C   0  0  0  0  0  0  0  0  0  0  0  0
   58.2140  -17.9130  -11.8710 C   0  0  0  0  0  0  0  0  0  0  0  0
   53.8820  -13.3800  -12.6120 C   0  0  0  0  0  0  0  0  0  0  0  0
   52.6570  -13.9070  -12.5380 C   0  0  0  0  0  0  0  0  0  0  0  0
   52.8540  -15.2730  -12.4100 C   0  0  0  0  0  0  0  0  0  0  0  0
   50.0750  -18.1050  -11.8480 C   0  0  0  0  0  0  0  0  0  0  0  0
   51.4400  -18.6770  -11.9510 C   0  0  0  0  0  0  0  0  0  0  0  0
   51.8340  -19.4160  -10.6470 C   0  0  0  0  0  0  0  0  0  0  0  0
   51.2910  -18.8010   -9.4370 C   0  0  0  0  0  0  0  0  0  0  0  0
   52.4270  -17.5090  -12.1540 C   0  0  0  0  0  0  0  0  0  0  0  0
   53.7850  -17.7650  -12.1730 C   0  0  0  0  0  0  0  0  0  0  0  0
   54.6770  -16.7280  -12.2820 C   0  0  0  0  0  0  0  0  0  0  0  0
   56.7200  -18.1410  -12.1180 C   0  0  0  0  0  0  0  0  0  0  0  0
   56.0420  -16.8680  -12.2560 N   0  0  0  0  0  0  0  0  0  0  0  0
   59.6070  -19.8130  -11.3600 N   0  0  0  0  0  0  0  0  0  0  0  0
   54.1570  -15.4690  -12.4270 N   0  0  0  0  0  0  0  0  0  0  0  0
   54.8070  -14.3070  -12.5460 N   0  0  0  0  0  0  0  0  0  0  0  0
   51.9950  -16.2850  -12.2860 N   0  0  0  0  0  0  0  0  0  0  0  0
  1  9  1  0  0  0  0
  2  3  1  0  0  0  0
  2 16  1  0  0  0  0
  3  4  1  0  0  0  0
  4  5  1  0  0  0  0
  4 18  1  0  0  0  0
  5 16  1  0  0  0  0
  6  7  4  0  0  0  0
  6 20  4  0  0  0  0
  7  8  4  0  0  0  0
  8 19  4  0  0  0  0
  8 21  4  0  0  0  0
  9 10  1  0  0  0  0
 10 11  1  0  0  0  0
 10 13  1  0  0  0  0
 11 12  1  0  0  0  0
 13 14  4  0  0  0  0
 13 21  4  0  0  0  0
 14 15  4  0  0  0  0
 15 17  1  0  0  0  0
 15 19  4  0  0  0  0
 16 17  1  0  0  0  0
 19 20  4  0  0  0  0
M  END
$$$$
