complex
  PyMOL3.0          3D                             0

 30 33  0  0  0  0  0  0  0  0999 V2000
  -41.4830   24.8150  -11.9140 C   0  0  0  0  0  0  0  0  0  0  0  0
  -47.9890   24.3130   -4.4930 C   0  0  0  0  0  0  0  0  0  0  0  0
  -47.3370   25.5180   -4.7540 C   0  0  0  0  0  0  0  0  0  0  0  0
  -46.4240   26.0530   -3.8270 C   0  0  0  0  0  0  0  0  0  0  0  0
  -46.1720   25.3160   -2.6780 C   0  0  0  0  0  0  0  0  0  0  0  0
  -45.0440   25.1510   -0.5660 C   0  0  0  0  0  0  0  0  0  0  0  0
  -46.7970   24.0950   -2.3990 C   0  0  0  0  0  0  0  0  0  0  0  0
  -47.7260   23.6060   -3.3380 C   0  0  0  0  0  0  0  0  0  0  0  0
  -50.3590   23.5410   -5.2550 C   0  0  0  0  0  0  0  0  0  0  0  0
  -51.3290   23.7650   -4.1910 C   0  0  0  0  0  0  0  0  0  0  0  0
  -52.9890   22.8480   -5.5740 C   0  0  0  0  0  0  0  0  0  0  0  0
  -41.8190   24.0040  -10.8090 C   0  0  0  0  0  0  0  0  0  0  0  0
  -50.8300   22.9560   -6.4360 C   0  0  0  0  0  0  0  0  0  0  0  0
  -49.9650   22.2380   -8.6000 C   0  0  0  0  0  0  0  0  0  0  0  0
  -46.6420   22.1390   -7.5800 C   0  0  0  0  0  0  0  0  0  0  0  0
  -45.4040   22.1640   -8.2300 C   0  0  0  0  0  0  0  0  0  0  0  0
  -43.0920   24.3330  -10.1290 C   0  0  0  0  0  0  0  0  0  0  0  0
  -44.8860   23.3950   -8.7560 C   0  0  0  0  0  0  0  0  0  0  0  0
  -45.6220   24.5710   -8.5660 C   0  0  0  0  0  0  0  0  0  0  0  0
  -46.8550   24.5480   -7.9040 C   0  0  0  0  0  0  0  0  0  0  0  0
  -47.3630   23.3210   -7.4170 C   0  0  0  0  0  0  0  0  0  0  0  0
  -48.6590   23.3060   -6.7250 C   0  0  0  0  0  0  0  0  0  0  0  0
  -48.9430   23.7740   -5.4480 C   0  0  0  0  0  0  0  0  0  0  0  0
  -43.6630   23.3510   -9.4070 N   0  0  0  0  0  0  0  0  0  0  0  0
  -50.9780   24.3030   -3.0420 N   0  0  0  0  0  0  0  0  0  0  0  0
  -52.6330   23.4210   -4.3810 N   0  0  0  0  0  0  0  0  0  0  0  0
  -52.1370   22.5890   -6.6000 N   0  0  0  0  0  0  0  0  0  0  0  0
  -49.8030   22.8280   -7.2880 N   0  0  0  0  0  0  0  0  0  0  0  0
  -43.5710   25.4390  -10.2380 O   0  0  0  0  0  0  0  0  0  0  0  0
  -45.2280   25.8530   -1.7780 O   0  0  0  0  0  0  0  0  0  0  0  0
  1 12  1  0  0  0  0
  2  3  4  0  0  0  0
  2  8  4  0  0  0  0
  2 23  1  0  0  0  0
  3  4  4  0  0  0  0
  4  5  4  0  0  0  0
  5  7  4  0  0  0  0
  5 30  1  0  0  0  0
  6 30  1  0  0  0  0
  7  8  4  0  0  0  0
  9 10  4  0  0  0  0
  9 13  4  0  0  0  0
  9 23  4  0  0  0  0
 10 25  1  0  0  0  0
 10 26  4  0  0  0  0
 11 26  4  0  0  0  0
 11 27  4  0  0  0  0
 12 17  1  0  0  0  0
 13 27  4  0  0  0  0
 13 28  4  0  0  0  0
 14 28  1  0  0  0  0
 15 16  4  0  0  0  0
 15 21  4  0  0  0  0
 16 18  4  0  0  0  0
 17 24  1  0  0  0  0
 17 29  2  0  0  0  0
 18 19  4  0  0  0  0
 18 24  1  0  0  0  0
 19 20  4  0  0  0  0
 20 21  4  0  0  0  0
 21 22  1  0  0  0  0
 22 23  4  0  0  0  0
 22 28  4  0  0  0  0
M  END
$$$$
