complex
  PyMOL3.0          3D                             0

 14 14  0  0  0  0  0  0  0  0999 V2000
   16.6160  -25.3790   -2.4930 C   0  0  0  0  0  0  0  0  0  0  0  0
   15.6340  -26.2230   -1.7650 C   0  0  0  0  0  0  0  0  0  0  0  0
   14.2510  -26.4270    0.1910 C   0  0  0  0  0  0  0  0  0  0  0  0
   15.0270  -27.1710    1.2330 C   0  0  0  0  0  0  0  0  0  0  0  0
   13.3570  -26.8510    2.8660 C   0  0  0  0  0  0  0  0  0  0  0  0
   12.6160  -27.5820    3.9350 C   0  0  0  0  0  0  0  0  0  0  0  0
   12.4430  -26.1810    1.8530 C   0  0  0  0  0  0  0  0  0  0  0  0
   13.2450  -25.4740    0.7970 C   0  0  0  0  0  0  0  0  0  0  0  0
   15.1470  -25.7150   -0.6700 N   0  0  0  0  0  0  0  0  0  0  0  0
   15.3130  -27.3020   -2.2040 O   0  0  0  0  0  0  0  0  0  0  0  0
   14.2260  -27.7810    2.1970 O   0  0  0  0  0  0  0  0  0  0  0  0
   11.9070  -28.6530    3.3930 O   0  0  0  0  0  0  0  0  0  0  0  0
   11.5940  -25.2640    2.5100 O   0  0  0  0  0  0  0  0  0  0  0  0
   12.3840  -24.9980   -0.1710 O   0  0  0  0  0  0  0  0  0  0  0  0
  1  2  1  0  0  0  0
  2  9  1  0  0  0  0
  2 10  2  0  0  0  0
  3  4  1  0  0  0  0
  3  8  1  0  0  0  0
  3  9  1  0  0  0  0
  4 11  1  0  0  0  0
  5  6  1  0  0  0  0
  5  7  1  0  0  0  0
  5 11  1  0  0  0  0
  6 12  1  0  0  0  0
  7  8  1  0  0  0  0
  7 13  1  0  0  0  0
  8 14  1  0  0  0  0
M  END
$$$$
