complex
  PyMOL3.0          3D                             0

 27 29  0  0  0  0  0  0  0  0999 V2000
  137.3320  129.6530  110.7760 P   0  0  0  0  0  0  0  0  0  0  0  0
  135.7690  131.8320  110.8110 P   0  0  0  0  0  0  0  0  0  0  0  0
  140.6250  122.0500  107.0320 C   0  0  0  0  0  0  0  0  0  0  0  0
  140.2020  127.6990  106.3480 C   0  0  0  0  0  0  0  0  0  0  0  0
  142.7390  122.9570  107.0950 C   0  0  0  0  0  0  0  0  0  0  0  0
  140.9770  124.4020  107.2230 C   0  0  0  0  0  0  0  0  0  0  0  0
  140.1140  123.3380  107.1340 C   0  0  0  0  0  0  0  0  0  0  0  0
  138.9470  125.0940  107.2870 C   0  0  0  0  0  0  0  0  0  0  0  0
  140.7090  126.8090  107.4290 C   0  0  0  0  0  0  0  0  0  0  0  0
  140.1440  128.8090  108.4160 C   0  0  0  0  0  0  0  0  0  0  0  0
  138.8790  129.3710  108.8530 C   0  0  0  0  0  0  0  0  0  0  0  0
  140.3400  129.0400  106.9320 C   0  0  0  0  0  0  0  0  0  0  0  0
  139.8520  120.9720  106.9470 N   0  0  0  0  0  0  0  0  0  0  0  0
  141.9520  121.8990  107.0080 N   0  0  0  0  0  0  0  0  0  0  0  0
  142.2830  124.1840  107.2180 N   0  0  0  0  0  0  0  0  0  0  0  0
  138.8430  123.8010  107.1820 N   0  0  0  0  0  0  0  0  0  0  0  0
  140.2080  125.4790  107.3170 N   0  0  0  0  0  0  0  0  0  0  0  0
  140.1220  127.4100  108.6020 O   0  0  0  0  0  0  0  0  0  0  0  0
  140.9760  127.5180  105.1960 O   0  0  0  0  0  0  0  0  0  0  0  0
  138.7110  129.2740  110.2090 O   0  0  0  0  0  0  0  0  0  0  0  0
  137.3540  129.2750  112.2010 O   0  5  0  0  0  0  0  0  0  0  0  0
  136.3560  128.9510  109.9200 O   0  0  0  0  0  0  0  0  0  0  0  0
  137.1760  131.2000  110.6450 O   0  0  0  0  0  0  0  0  0  0  0  0
  135.9590  133.2630  110.7740 O   0  0  0  0  0  0  0  0  0  0  0  0
  135.2630  131.3300  112.1100 O   0  5  0  0  0  0  0  0  0  0  0  0
  134.9810  131.3010  109.6840 O   0  0  0  0  0  0  0  0  0  0  0  0
  141.6100  129.4820  106.6560 O   0  0  0  0  0  0  0  0  0  0  0  0
  1 20  1  0  0  0  0
  1 21  1  0  0  0  0
  1 22  2  0  0  0  0
  1 23  1  0  0  0  0
  2 23  1  0  0  0  0
  2 24  1  0  0  0  0
  2 25  1  0  0  0  0
  2 26  2  0  0  0  0
  3  7  4  0  0  0  0
  3 13  1  0  0  0  0
  3 14  4  0  0  0  0
  4  9  1  0  0  0  0
  4 12  1  0  0  0  0
  4 19  1  0  0  0  0
  5 14  4  0  0  0  0
  5 15  4  0  0  0  0
  6  7  4  0  0  0  0
  6 15  4  0  0  0  0
  6 17  4  0  0  0  0
  7 16  4  0  0  0  0
  8 16  4  0  0  0  0
  8 17  4  0  0  0  0
  9 17  1  0  0  0  0
  9 18  1  0  0  0  0
 10 11  1  0  0  0  0
 10 12  1  0  0  0  0
 10 18  1  0  0  0  0
 11 20  1  0  0  0  0
 12 27  1  0  0  0  0
M  END
$$$$
