complex
  PyMOL3.0          3D                             0

 27 29  0  0  0  0  0  0  0  0999 V2000
  143.0730  213.9240  171.3580 P   0  0  0  0  0  0  0  0  0  0  0  0
  141.3160  212.0300  172.2670 P   0  0  0  0  0  0  0  0  0  0  0  0
  145.2170  222.6400  169.5720 C   0  0  0  0  0  0  0  0  0  0  0  0
  144.0710  219.0950  174.0240 C   0  0  0  0  0  0  0  0  0  0  0  0
  147.0800  222.5660  170.9620 C   0  0  0  0  0  0  0  0  0  0  0  0
  145.4240  220.9450  171.3380 C   0  0  0  0  0  0  0  0  0  0  0  0
  144.6890  221.5110  170.2880 C   0  0  0  0  0  0  0  0  0  0  0  0
  143.5640  219.8080  171.1110 C   0  0  0  0  0  0  0  0  0  0  0  0
  145.0500  219.0290  172.9040 C   0  0  0  0  0  0  0  0  0  0  0  0
  144.5060  216.8230  173.4570 C   0  0  0  0  0  0  0  0  0  0  0  0
  143.4260  215.9210  172.9150 C   0  0  0  0  0  0  0  0  0  0  0  0
  143.9190  217.6900  174.5520 C   0  0  0  0  0  0  0  0  0  0  0  0
  144.5660  223.1950  168.5530 N   0  0  0  0  0  0  0  0  0  0  0  0
  146.4230  223.1600  169.9450 N   0  0  0  0  0  0  0  0  0  0  0  0
  146.6290  221.4960  171.6680 N   0  0  0  0  0  0  0  0  0  0  0  0
  143.5260  220.7670  170.1810 N   0  0  0  0  0  0  0  0  0  0  0  0
  144.6850  219.9080  171.8270 N   0  0  0  0  0  0  0  0  0  0  0  0
  144.9630  217.6870  172.4070 O   0  0  0  0  0  0  0  0  0  0  0  0
  144.5750  220.0160  174.9930 O   0  0  0  0  0  0  0  0  0  0  0  0
  144.0120  215.0250  172.0350 O   0  0  0  0  0  0  0  0  0  0  0  0
  143.8340  213.1440  170.3340 O   0  5  0  0  0  0  0  0  0  0  0  0
  141.9420  214.6750  170.7890 O   0  0  0  0  0  0  0  0  0  0  0  0
  142.5660  212.9400  172.4670 O   0  0  0  0  0  0  0  0  0  0  0  0
  140.1750  212.9350  172.2380 O   0  0  0  0  0  0  0  0  0  0  0  0
  141.2830  211.0980  173.4200 O   0  5  0  0  0  0  0  0  0  0  0  0
  141.5290  211.3730  170.9520 O   0  0  0  0  0  0  0  0  0  0  0  0
  144.6670  217.5070  175.7040 O   0  0  0  0  0  0  0  0  0  0  0  0
  1 20  1  0  0  0  0
  1 21  1  0  0  0  0
  1 22  2  0  0  0  0
  1 23  1  0  0  0  0
  2 23  1  0  0  0  0
  2 24  1  0  0  0  0
  2 25  1  0  0  0  0
  2 26  2  0  0  0  0
  3  7  4  0  0  0  0
  3 13  1  0  0  0  0
  3 14  4  0  0  0  0
  4  9  1  0  0  0  0
  4 12  1  0  0  0  0
  4 19  1  0  0  0  0
  5 14  4  0  0  0  0
  5 15  4  0  0  0  0
  6  7  4  0  0  0  0
  6 15  4  0  0  0  0
  6 17  4  0  0  0  0
  7 16  4  0  0  0  0
  8 16  4  0  0  0  0
  8 17  4  0  0  0  0
  9 17  1  0  0  0  0
  9 18  1  0  0  0  0
 10 11  1  0  0  0  0
 10 12  1  0  0  0  0
 10 18  1  0  0  0  0
 11 20  1  0  0  0  0
 12 27  1  0  0  0  0
M  END
$$$$
