complex
  PyMOL3.0          3D                             0

  9  8  0  0  0  0  0  0  0  0999 V2000
   -9.0570    0.9370   17.6200 P   0  0  0  0  0  0  0  0  0  0  0  0
  -10.9080    3.1570   15.0710 C   0  0  0  0  0  0  0  0  0  0  0  0
  -10.3530    1.8350   15.5890 C   0  0  0  0  0  0  0  0  0  0  0  0
  -10.1950    4.1390   15.2230 O   0  0  0  0  0  0  0  0  0  0  0  0
  -12.0320    3.1900   14.5530 O   0  0  0  0  0  0  0  0  0  0  0  0
   -9.7740    2.1190   16.8760 O   0  0  0  0  0  0  0  0  0  0  0  0
  -10.0290   -0.1420   17.7960 O   0  0  0  0  0  0  0  0  0  0  0  0
   -8.6470    1.5280   18.9650 O   0  5  0  0  0  0  0  0  0  0  0  0
   -7.8320    0.5830   16.7970 O   0  0  0  0  0  0  0  0  0  0  0  0
  1  6  1  0  0  0  0
  1  7  1  0  0  0  0
  1  8  1  0  0  0  0
  1  9  2  0  0  0  0
  2  3  1  0  0  0  0
  2  4  4  0  0  0  0
  2  5  4  0  0  0  0
  3  6  1  0  0  0  0
M  END
$$$$
