complex
  PyMOL3.0          3D                             0

 27 29  0  0  0  0  0  0  0  0999 V2000
  -15.7950   -2.7770   12.8970 P   0  0  0  0  0  0  0  0  0  0  0  0
  -17.5970   -2.5330   14.9830 P   0  0  0  0  0  0  0  0  0  0  0  0
  -18.1840    3.8350    5.3780 C   0  0  0  0  0  0  0  0  0  0  0  0
  -16.4870    2.4280   10.9400 C   0  0  0  0  0  0  0  0  0  0  0  0
  -15.8340    3.8690    5.4540 C   0  0  0  0  0  0  0  0  0  0  0  0
  -16.9370    3.0470    7.3030 C   0  0  0  0  0  0  0  0  0  0  0  0
  -18.1910    3.2900    6.6960 C   0  0  0  0  0  0  0  0  0  0  0  0
  -18.5680    2.4480    8.6430 C   0  0  0  0  0  0  0  0  0  0  0  0
  -16.1490    2.1030    9.4920 C   0  0  0  0  0  0  0  0  0  0  0  0
  -15.3800    0.3290   10.7030 C   0  0  0  0  0  0  0  0  0  0  0  0
  -16.1230   -0.8840   11.2070 C   0  0  0  0  0  0  0  0  0  0  0  0
  -15.5170    1.5320   11.6490 C   0  0  0  0  0  0  0  0  0  0  0  0
  -19.2950    4.1100    4.7400 N   0  0  0  0  0  0  0  0  0  0  0  0
  -16.9680    4.1180    4.8030 N   0  0  0  0  0  0  0  0  0  0  0  0
  -15.7730    3.3370    6.6850 N   0  0  0  0  0  0  0  0  0  0  0  0
  -19.1900    2.9030    7.5660 N   0  0  0  0  0  0  0  0  0  0  0  0
  -17.2110    2.5170    8.5140 N   0  0  0  0  0  0  0  0  0  0  0  0
  -15.9310    0.7270    9.3970 O   0  0  0  0  0  0  0  0  0  0  0  0
  -16.2130    3.7980   11.2160 O   0  0  0  0  0  0  0  0  0  0  0  0
  -15.5420   -1.3410   12.3700 O   0  0  0  0  0  0  0  0  0  0  0  0
  -15.6820   -3.6950   11.6670 O   0  5  0  0  0  0  0  0  0  0  0  0
  -14.7720   -3.1430   14.0040 O   0  0  0  0  0  0  0  0  0  0  0  0
  -17.2200   -2.7790   13.4770 O   0  0  0  0  0  0  0  0  0  0  0  0
  -17.0690   -3.7430   15.7620 O   0  0  0  0  0  0  0  0  0  0  0  0
  -19.0880   -2.4720   14.9830 O   0  5  0  0  0  0  0  0  0  0  0  0
  -16.9170   -1.2480   15.3970 O   0  0  0  0  0  0  0  0  0  0  0  0
  -14.2610    2.1440   11.8100 O   0  0  0  0  0  0  0  0  0  0  0  0
  1 20  1  0  0  0  0
  1 21  1  0  0  0  0
  1 22  2  0  0  0  0
  1 23  1  0  0  0  0
  2 23  1  0  0  0  0
  2 24  1  0  0  0  0
  2 25  1  0  0  0  0
  2 26  2  0  0  0  0
  3  7  4  0  0  0  0
  3 13  1  0  0  0  0
  3 14  4  0  0  0  0
  4  9  1  0  0  0  0
  4 12  1  0  0  0  0
  4 19  1  0  0  0  0
  5 14  4  0  0  0  0
  5 15  4  0  0  0  0
  6  7  4  0  0  0  0
  6 15  4  0  0  0  0
  6 17  4  0  0  0  0
  7 16  4  0  0  0  0
  8 16  4  0  0  0  0
  8 17  4  0  0  0  0
  9 17  1  0  0  0  0
  9 18  1  0  0  0  0
 10 11  1  0  0  0  0
 10 12  1  0  0  0  0
 10 18  1  0  0  0  0
 11 20  1  0  0  0  0
 12 27  1  0  0  0  0
M  END
$$$$
