complex
  PyMOL3.0          3D                             0

 23 24  0  0  0  0  0  0  0  0999 V2000
  -64.1510  -54.5740  -28.4520 C   0  0  0  0  0  0  0  0  0  0  0  0
  -60.5280  -53.5120  -26.5990 C   0  0  0  0  0  0  0  0  0  0  0  0
  -61.7340  -52.8420  -26.0610 C   0  0  0  0  0  0  0  0  0  0  0  0
  -62.8800  -52.9660  -27.0640 C   0  0  0  0  0  0  0  0  0  0  0  0
  -63.1250  -54.3780  -27.3940 C   0  0  0  0  0  0  0  0  0  0  0  0
  -60.8480  -54.9520  -26.9630 C   0  0  0  0  0  0  0  0  0  0  0  0
  -60.9380  -57.1390  -25.9190 C   0  0  0  0  0  0  0  0  0  0  0  0
  -59.7210  -57.0690  -23.8470 C   0  0  0  0  0  0  0  0  0  0  0  0
  -58.3570  -57.2940  -23.3020 C   0  0  0  0  0  0  0  0  0  0  0  0
  -60.7350  -57.9640  -23.1760 C   0  0  0  0  0  0  0  0  0  0  0  0
  -62.1170  -57.7750  -23.8120 C   0  0  0  0  0  0  0  0  0  0  0  0
  -62.0150  -58.0430  -25.3000 C   0  0  0  0  0  0  0  0  0  0  0  0
  -64.4660  -55.9650  -28.5150 O   0  0  0  0  0  0  0  0  0  0  0  0
  -61.4580  -51.4860  -25.8220 O   0  0  0  0  0  0  0  0  0  0  0  0
  -64.0360  -52.4020  -26.4410 O   0  0  0  0  0  0  0  0  0  0  0  0
  -61.9240  -55.0190  -27.8800 O   0  0  0  0  0  0  0  0  0  0  0  0
  -61.2330  -55.7410  -25.7900 O   0  0  0  0  0  0  0  0  0  0  0  0
  -59.6780  -57.3420  -25.2840 O   0  0  0  0  0  0  0  0  0  0  0  0
  -58.0240  -58.6810  -23.4680 O   0  0  0  0  0  0  0  0  0  0  0  0
  -60.8470  -57.6370  -21.7750 O   0  0  0  0  0  0  0  0  0  0  0  0
  -63.0040  -58.6840  -23.2230 O   0  0  0  0  0  0  0  0  0  0  0  0
  -63.2490  -57.7590  -25.9130 O   0  0  0  0  0  0  0  0  0  0  0  0
  -59.4860  -53.5040  -25.6150 O   0  0  0  0  0  0  0  0  0  0  0  0
  1  5  1  0  0  0  0
  1 13  1  0  0  0  0
  2  3  1  0  0  0  0
  2  6  1  0  0  0  0
  2 23  1  0  0  0  0
  3  4  1  0  0  0  0
  3 14  1  0  0  0  0
  4  5  1  0  0  0  0
  4 15  1  0  0  0  0
  5 16  1  0  0  0  0
  6 16  1  0  0  0  0
  6 17  1  0  0  0  0
  7 12  1  0  0  0  0
  7 17  1  0  0  0  0
  7 18  1  0  0  0  0
  8  9  1  0  0  0  0
  8 10  1  0  0  0  0
  8 18  1  0  0  0  0
  9 19  1  0  0  0  0
 10 11  1  0  0  0  0
 10 20  1  0  0  0  0
 11 12  1  0  0  0  0
 11 21  1  0  0  0  0
 12 22  1  0  0  0  0
M  END
$$$$
