complex
  PyMOL3.0          3D                             0

 33 36  0  0  0  0  0  0  0  0999 V2000
  -36.0230   78.5340  -55.6040 Cl  0  0  0  0  0  0  0  0  0  0  0  0
  -34.9690   75.4640  -49.3890 C   0  0  0  0  0  0  0  0  0  0  0  0
  -42.7830   78.4820  -50.1160 C   0  0  0  0  0  0  0  0  0  0  0  0
  -43.9440   78.4280  -49.3500 C   0  0  0  0  0  0  0  0  0  0  0  0
  -45.2010   78.7690  -49.8450 C   0  0  0  0  0  0  0  0  0  0  0  0
  -45.3280   79.1360  -51.2190 C   0  0  0  0  0  0  0  0  0  0  0  0
  -46.6340   79.4750  -51.8210 C   0  0  0  0  0  0  0  0  0  0  0  0
  -44.1910   79.2350  -52.0300 C   0  0  0  0  0  0  0  0  0  0  0  0
  -42.8960   78.9070  -51.4850 C   0  0  0  0  0  0  0  0  0  0  0  0
  -41.4750   78.2430  -53.3500 C   0  0  0  0  0  0  0  0  0  0  0  0
  -40.1260   78.3490  -53.9120 C   0  0  0  0  0  0  0  0  0  0  0  0
  -39.1640   79.0520  -53.1990 C   0  0  0  0  0  0  0  0  0  0  0  0
  -35.8640   76.0080  -48.3650 C   0  0  0  0  0  0  0  0  0  0  0  0
  -37.8700   79.1240  -53.7280 C   0  0  0  0  0  0  0  0  0  0  0  0
  -37.5860   78.4680  -54.9130 C   0  0  0  0  0  0  0  0  0  0  0  0
  -38.5480   77.7650  -55.5950 C   0  0  0  0  0  0  0  0  0  0  0  0
  -39.8050   77.6950  -55.0840 C   0  0  0  0  0  0  0  0  0  0  0  0
  -41.4310   76.6680  -49.3040 C   0  0  0  0  0  0  0  0  0  0  0  0
  -39.9550   76.3090  -49.0290 C   0  0  0  0  0  0  0  0  0  0  0  0
  -37.1460   76.4180  -48.6870 C   0  0  0  0  0  0  0  0  0  0  0  0
  -35.4440   76.1160  -47.0380 C   0  0  0  0  0  0  0  0  0  0  0  0
  -36.2900   76.6610  -46.0790 C   0  0  0  0  0  0  0  0  0  0  0  0
  -37.5890   77.0690  -46.4160 C   0  0  0  0  0  0  0  0  0  0  0  0
  -38.4050   77.6080  -45.3820 C   0  0  0  0  0  0  0  0  0  0  0  0
  -37.9810   76.9180  -47.7150 C   0  0  0  0  0  0  0  0  0  0  0  0
  -39.4620   78.6610  -48.4610 C   0  0  0  0  0  0  0  0  0  0  0  0
  -40.9450   79.0320  -48.6450 C   0  0  0  0  0  0  0  0  0  0  0  0
  -39.3320   77.2570  -48.0730 N   0  0  0  0  0  0  0  0  0  0  0  0
  -41.5130   78.0970  -49.6210 N   0  0  0  0  0  0  0  0  0  0  0  0
  -41.7190   78.9770  -52.2380 N   0  0  0  0  0  0  0  0  0  0  0  0
  -46.6780   79.7990  -53.0040 O   0  0  0  0  0  0  0  0  0  0  0  0
  -47.6650   79.3730  -51.1120 O   0  0  0  0  0  0  0  0  0  0  0  0
  -42.3410   77.5720  -53.8660 O   0  0  0  0  0  0  0  0  0  0  0  0
  1 15  1  0  0  0  0
  2 13  1  0  0  0  0
  3  4  4  0  0  0  0
  3  9  4  0  0  0  0
  3 29  1  0  0  0  0
  4  5  4  0  0  0  0
  5  6  4  0  0  0  0
  6  7  1  0  0  0  0
  6  8  4  0  0  0  0
  7 31  4  0  0  0  0
  7 32  4  0  0  0  0
  8  9  4  0  0  0  0
  9 30  1  0  0  0  0
 10 11  1  0  0  0  0
 10 30  1  0  0  0  0
 10 33  2  0  0  0  0
 11 12  4  0  0  0  0
 11 17  4  0  0  0  0
 12 14  4  0  0  0  0
 13 20  4  0  0  0  0
 13 21  4  0  0  0  0
 14 15  4  0  0  0  0
 15 16  4  0  0  0  0
 16 17  4  0  0  0  0
 18 19  1  0  0  0  0
 18 29  1  0  0  0  0
 19 28  1  0  0  0  0
 20 25  4  0  0  0  0
 21 22  4  0  0  0  0
 22 23  4  0  0  0  0
 23 24  1  0  0  0  0
 23 25  4  0  0  0  0
 25 28  1  0  0  0  0
 26 27  1  0  0  0  0
 26 28  1  0  0  0  0
 27 29  1  0  0  0  0
M  END
$$$$
