complex
  PyMOL3.0          3D                             0

 65 66  0  0  0  0  0  0  0  0999 V2000
  -21.1290    5.7160  -10.5440 C   0  0  0  0  0  0  0  0  0  0  0  0
  -20.1170    7.2640  -15.1490 C   0  0  0  0  0  0  0  0  0  0  0  0
  -19.7610    8.5800  -14.5700 C   0  0  0  0  0  0  0  0  0  0  0  0
  -17.8480    8.7470  -13.0390 C   0  0  0  0  0  0  0  0  0  0  0  0
  -16.3490    8.8940  -13.0050 C   0  0  0  0  0  0  0  0  0  0  0  0
  -15.6630    8.0550  -12.0320 C   0  0  0  0  0  0  0  0  0  0  0  0
  -14.2240    8.0850  -12.3430 C   0  0  0  0  0  0  0  0  0  0  0  0
  -13.4310    7.2410  -11.4300 C   0  0  0  0  0  0  0  0  0  0  0  0
  -16.1610   11.1990  -13.7040 C   0  0  0  0  0  0  0  0  0  0  0  0
  -15.8580   12.6880  -13.4240 C   0  0  0  0  0  0  0  0  0  0  0  0
  -15.2680   13.3070  -14.6480 C   0  0  0  0  0  0  0  0  0  0  0  0
  -20.2810    4.6580  -11.1450 C   0  0  0  0  0  0  0  0  0  0  0  0
  -14.0850   12.5400  -15.1150 C   0  0  0  0  0  0  0  0  0  0  0  0
  -13.1640   13.3630  -16.0180 C   0  0  0  0  0  0  0  0  0  0  0  0
  -13.8830   13.0650  -18.2380 C   0  0  0  0  0  0  0  0  0  0  0  0
  -15.1380   13.2420  -11.1890 C   0  0  0  0  0  0  0  0  0  0  0  0
  -13.9870   13.7020  -10.3000 C   0  0  0  0  0  0  0  0  0  0  0  0
  -12.7150   13.2380  -10.9940 C   0  0  0  0  0  0  0  0  0  0  0  0
  -11.9860   12.2340  -10.2690 C   0  0  0  0  0  0  0  0  0  0  0  0
  -10.6760   12.5050   -9.9080 C   0  0  0  0  0  0  0  0  0  0  0  0
   -9.9580   11.5850   -9.2310 C   0  0  0  0  0  0  0  0  0  0  0  0
  -10.5430   10.3580   -8.8830 C   0  0  0  0  0  0  0  0  0  0  0  0
  -18.9890    5.2100  -11.6990 C   0  0  0  0  0  0  0  0  0  0  0  0
  -11.8750   10.1160   -9.2380 C   0  0  0  0  0  0  0  0  0  0  0  0
  -12.5820   11.0460   -9.9150 C   0  0  0  0  0  0  0  0  0  0  0  0
  -13.2080   15.8850   -9.4880 C   0  0  0  0  0  0  0  0  0  0  0  0
  -13.6310   17.3380   -9.3180 C   0  0  0  0  0  0  0  0  0  0  0  0
  -15.1090   17.3060   -9.1320 C   0  0  0  0  0  0  0  0  0  0  0  0
  -15.7660   18.5880   -9.3070 C   0  0  0  0  0  0  0  0  0  0  0  0
  -15.4580   19.5590  -10.1950 C   0  0  0  0  0  0  0  0  0  0  0  0
  -17.2060   20.1800   -9.1360 C   0  0  0  0  0  0  0  0  0  0  0  0
  -20.0030    9.6880  -15.5620 C   0  0  0  0  0  0  0  0  0  0  0  0
  -19.7350   11.0150  -14.9990 C   0  0  0  0  0  0  0  0  0  0  0  0
  -21.0460    3.9610  -12.3140 C   0  0  0  0  0  0  0  0  0  0  0  0
  -22.4100    3.1390  -12.0000 C   0  0  0  0  0  0  0  0  0  0  0  0
  -21.4520    4.5970  -14.5570 C   0  0  0  0  0  0  0  0  0  0  0  0
  -21.8010    5.6690  -15.4870 C   0  0  0  0  0  0  0  0  0  0  0  0
  -23.2980    5.8210  -15.6720 C   0  0  0  0  0  0  0  0  0  0  0  0
  -23.7200    6.6010  -16.8310 C   0  0  0  0  0  0  0  0  0  0  0  0
  -23.4910    5.8640  -18.1100 C   0  0  0  0  0  0  0  0  0  0  0  0
  -21.3450    4.9340  -13.2930 N   0  0  0  0  0  0  0  0  0  0  0  0
  -12.9620   17.9640   -8.2710 N   0  0  0  0  0  0  0  0  0  0  0  0
  -16.3390   20.5610  -10.1050 N   0  0  0  0  0  0  0  0  0  0  0  0
  -16.8570   18.9740   -8.6120 N   0  0  0  0  0  0  0  0  0  0  0  0
  -21.4000    6.8620  -14.9770 N   0  0  0  0  0  0  0  0  0  0  0  0
  -18.3360    8.6160  -14.2730 N   0  0  0  0  0  0  0  0  0  0  0  0
  -16.1280   10.3210  -12.7480 N   0  0  0  0  0  0  0  0  0  0  0  0
  -13.8420   13.7990  -17.1550 N   0  0  0  0  0  0  0  0  0  0  0  0
  -13.4200   11.8570  -18.2660 N   0  0  0  0  0  0  0  0  0  0  0  0
  -14.4070   13.5590  -19.3290 N   0  0  0  0  0  0  0  0  0  0  0  0
  -14.8590   12.8730  -12.3540 N   0  0  0  0  0  0  0  0  0  0  0  0
  -14.0360   15.1860  -10.1900 N   0  0  0  0  0  0  0  0  0  0  0  0
  -21.2790    3.4750  -14.9560 O   0  0  0  0  0  0  0  0  0  0  0  0
  -12.2380   15.4440   -8.9920 O   0  0  0  0  0  0  0  0  0  0  0  0
  -21.3110    9.6370  -16.0320 O   0  0  0  0  0  0  0  0  0  0  0  0
  -22.3220    2.0540  -11.3680 O   0  0  0  0  0  0  0  0  0  0  0  0
  -23.4850    3.6020  -12.4140 O   0  0  0  0  0  0  0  0  0  0  0  0
  -24.1900    4.8380  -18.3200 O   0  0  0  0  0  0  0  0  0  0  0  0
  -22.5920    6.2930  -18.8070 O   0  0  0  0  0  0  0  0  0  0  0  0
  -19.3680    6.5800  -15.7360 O   0  0  0  0  0  0  0  0  0  0  0  0
  -18.5290    8.8100  -12.0710 O   0  0  0  0  0  0  0  0  0  0  0  0
  -13.8830    7.0060  -10.2920 O   0  0  0  0  0  0  0  0  0  0  0  0
  -12.3230    6.8310  -11.8380 O   0  0  0  0  0  0  0  0  0  0  0  0
  -16.4710   10.7500  -14.7940 O   0  0  0  0  0  0  0  0  0  0  0  0
  -16.2580   13.2410  -10.7810 O   0  0  0  0  0  0  0  0  0  0  0  0
  1 12  1  0  0  0  0
  2  3  1  0  0  0  0
  2 45  1  0  0  0  0
  2 60  2  0  0  0  0
  3 32  1  0  0  0  0
  3 46  1  0  0  0  0
  4  5  1  0  0  0  0
  4 46  1  0  0  0  0
  4 61  2  0  0  0  0
  5  6  1  0  0  0  0
  5 47  1  0  0  0  0
  6  7  1  0  0  0  0
  7  8  1  0  0  0  0
  8 62  4  0  0  0  0
  8 63  4  0  0  0  0
  9 10  1  0  0  0  0
  9 47  1  0  0  0  0
  9 64  2  0  0  0  0
 10 11  1  0  0  0  0
 10 51  1  0  0  0  0
 11 13  1  0  0  0  0
 12 23  1  0  0  0  0
 12 34  1  0  0  0  0
 13 14  1  0  0  0  0
 14 48  1  0  0  0  0
 15 48  1  0  0  0  0
 15 49  4  0  0  0  0
 15 50  4  0  0  0  0
 16 17  1  0  0  0  0
 16 51  1  0  0  0  0
 16 65  2  0  0  0  0
 17 18  1  0  0  0  0
 17 52  1  0  0  0  0
 18 19  1  0  0  0  0
 19 20  4  0  0  0  0
 19 25  4  0  0  0  0
 20 21  4  0  0  0  0
 21 22  4  0  0  0  0
 22 24  4  0  0  0  0
 24 25  4  0  0  0  0
 26 27  1  0  0  0  0
 26 52  1  0  0  0  0
 26 54  2  0  0  0  0
 27 28  1  0  0  0  0
 27 42  1  0  0  0  0
 28 29  1  0  0  0  0
 29 30  4  0  0  0  0
 29 44  4  0  0  0  0
 30 43  4  0  0  0  0
 31 43  4  0  0  0  0
 31 44  4  0  0  0  0
 32 33  1  0  0  0  0
 32 55  1  0  0  0  0
 34 35  1  0  0  0  0
 34 41  1  0  0  0  0
 35 56  4  0  0  0  0
 35 57  4  0  0  0  0
 36 37  1  0  0  0  0
 36 41  1  0  0  0  0
 36 53  2  0  0  0  0
 37 38  1  0  0  0  0
 37 45  1  0  0  0  0
 38 39  1  0  0  0  0
 39 40  1  0  0  0  0
 40 58  4  0  0  0  0
 40 59  4  0  0  0  0
M  END
$$$$
