complex
  PyMOL3.0          3D                             0

 26 28  0  0  0  0  0  0  0  0999 V2000
   15.5880   26.3460    3.8920 C   0  0  0  0  0  0  0  0  0  0  0  0
   25.2610   25.7280    4.3180 C   0  0  0  0  0  0  0  0  0  0  0  0
   26.1590   24.5120    4.4820 C   0  0  0  0  0  0  0  0  0  0  0  0
   27.5500   24.9130    4.7620 C   0  0  0  0  0  0  0  0  0  0  0  0
   22.1840   27.6220    1.6510 C   0  0  0  0  0  0  0  0  0  0  0  0
   20.7130   27.7380    1.6450 C   0  0  0  0  0  0  0  0  0  0  0  0
   16.4430   24.5340    2.6960 C   0  0  0  0  0  0  0  0  0  0  0  0
   17.8580   26.2730    3.1430 C   0  0  0  0  0  0  0  0  0  0  0  0
   16.8470   26.9340    3.8180 C   0  0  0  0  0  0  0  0  0  0  0  0
   18.6140   28.1160    3.9230 C   0  0  0  0  0  0  0  0  0  0  0  0
   20.2370   26.7540    2.6130 C   0  0  0  0  0  0  0  0  0  0  0  0
   22.4800   27.1230    3.0400 C   0  0  0  0  0  0  0  0  0  0  0  0
   23.1860   28.1370    3.8880 C   0  0  0  0  0  0  0  0  0  0  0  0
   24.8400   26.4150    5.5310 C   0  0  0  0  0  0  0  0  0  0  0  0
   14.5610   26.9240    4.5040 N   0  0  0  0  0  0  0  0  0  0  0  0
   15.4210   25.1290    3.3080 N   0  0  0  0  0  0  0  0  0  0  0  0
   17.6470   25.0740    2.5670 N   0  0  0  0  0  0  0  0  0  0  0  0
   17.3580   28.0820    4.2990 N   0  0  0  0  0  0  0  0  0  0  0  0
   18.9450   27.0250    3.2150 N   0  0  0  0  0  0  0  0  0  0  0  0
   25.6530   23.6640    5.5040 N   0  0  0  0  0  0  0  0  0  0  0  0
   21.2320   26.7910    3.6440 O   0  0  0  0  0  0  0  0  0  0  0  0
   28.1730   24.3920    5.7060 O   0  0  0  0  0  0  0  0  0  0  0  0
   28.1130   25.7390    4.0370 O   0  0  0  0  0  0  0  0  0  0  0  0
   22.6480   26.6670    0.7630 O   0  0  0  0  0  0  0  0  0  0  0  0
   20.2240   27.5100    0.3680 O   0  0  0  0  0  0  0  0  0  0  0  0
   23.5350   27.5770    5.4940 S   0  0  0  0  0  0  0  0  0  0  0  0
  1  9  4  0  0  0  0
  1 15  1  0  0  0  0
  1 16  4  0  0  0  0
  2  3  1  0  0  0  0
  2 14  1  0  0  0  0
  3  4  1  0  0  0  0
  3 20  1  0  0  0  0
  4 22  4  0  0  0  0
  4 23  4  0  0  0  0
  5  6  1  0  0  0  0
  5 12  1  0  0  0  0
  5 24  1  0  0  0  0
  6 11  1  0  0  0  0
  6 25  1  0  0  0  0
  7 16  4  0  0  0  0
  7 17  4  0  0  0  0
  8  9  4  0  0  0  0
  8 17  4  0  0  0  0
  8 19  4  0  0  0  0
  9 18  4  0  0  0  0
 10 18  4  0  0  0  0
 10 19  4  0  0  0  0
 11 19  1  0  0  0  0
 11 21  1  0  0  0  0
 12 13  1  0  0  0  0
 12 21  1  0  0  0  0
 13 26  1  0  0  0  0
 14 26  1  0  0  0  0
M  END
$$$$
