complex
  PyMOL3.0          3D                             0

 30 32  0  0  0  0  0  0  0  0999 V2000
  134.2470  127.1890   89.4030 P   0  0  0  0  0  0  0  0  0  0  0  0
  134.3600  129.7060   88.2500 P   0  0  0  0  0  0  0  0  0  0  0  0
  131.9990  131.0540   88.8900 P   0  0  0  0  0  0  0  0  0  0  0  0
  136.1440  122.9740   95.9270 C   0  0  0  0  0  0  0  0  0  0  0  0
  134.9850  128.6030   91.4560 C   0  0  0  0  0  0  0  0  0  0  0  0
  137.4090  124.5770   97.0830 C   0  0  0  0  0  0  0  0  0  0  0  0
  136.8200  125.0510   94.9060 C   0  0  0  0  0  0  0  0  0  0  0  0
  136.1390  123.8140   94.8080 C   0  0  0  0  0  0  0  0  0  0  0  0
  135.9230  124.8300   92.9480 C   0  0  0  0  0  0  0  0  0  0  0  0
  137.1560  126.9540   93.3840 C   0  0  0  0  0  0  0  0  0  0  0  0
  137.7320  127.1340   92.0090 C   0  0  0  0  0  0  0  0  0  0  0  0
  137.4760  128.5710   91.6750 C   0  0  0  0  0  0  0  0  0  0  0  0
  136.1610  128.7520   92.3610 C   0  0  0  0  0  0  0  0  0  0  0  0
  135.5460  121.7670   95.9700 N   0  0  0  0  0  0  0  0  0  0  0  0
  136.7800  123.3970   97.0500 N   0  0  0  0  0  0  0  0  0  0  0  0
  137.4450  125.4180   96.0510 N   0  0  0  0  0  0  0  0  0  0  0  0
  135.6160  123.7320   93.5780 N   0  0  0  0  0  0  0  0  0  0  0  0
  136.6680  125.6420   93.7350 N   0  0  0  0  0  0  0  0  0  0  0  0
  138.4130  129.3880   92.2080 O   0  0  0  0  0  0  0  0  0  0  0  0
  132.8460  132.0440   89.6470 O   0  0  0  0  0  0  0  0  0  0  0  0
  131.6770  131.5530   87.5170 O   0  5  0  0  0  0  0  0  0  0  0  0
  136.0510  127.8040   93.4190 O   0  0  0  0  0  0  0  0  0  0  0  0
  135.1310  127.4590   90.6670 O   0  0  0  0  0  0  0  0  0  0  0  0
  134.4990  125.8160   88.9660 O   0  5  0  0  0  0  0  0  0  0  0  0
  132.8120  127.4810   89.7460 O   0  0  0  0  0  0  0  0  0  0  0  0
  134.7430  128.2210   88.3130 O   0  0  0  0  0  0  0  0  0  0  0  0
  135.2650  130.4480   89.1900 O   0  5  0  0  0  0  0  0  0  0  0  0
  134.4260  130.2320   86.8490 O   0  0  0  0  0  0  0  0  0  0  0  0
  132.8540  129.7840   88.7490 O   0  0  0  0  0  0  0  0  0  0  0  0
  130.7890  130.6290   89.6690 O   0  0  0  0  0  0  0  0  0  0  0  0
  1 23  1  0  0  0  0
  1 24  1  0  0  0  0
  1 25  2  0  0  0  0
  1 26  1  0  0  0  0
  2 26  1  0  0  0  0
  2 27  1  0  0  0  0
  2 28  2  0  0  0  0
  2 29  1  0  0  0  0
  3 20  1  0  0  0  0
  3 21  1  0  0  0  0
  3 29  1  0  0  0  0
  3 30  2  0  0  0  0
  4  8  4  0  0  0  0
  4 14  1  0  0  0  0
  4 15  4  0  0  0  0
  5 13  1  0  0  0  0
  5 23  1  0  0  0  0
  6 15  4  0  0  0  0
  6 16  4  0  0  0  0
  7  8  4  0  0  0  0
  7 16  4  0  0  0  0
  7 18  4  0  0  0  0
  8 17  4  0  0  0  0
  9 17  4  0  0  0  0
  9 18  4  0  0  0  0
 10 11  1  0  0  0  0
 10 18  1  0  0  0  0
 10 22  1  0  0  0  0
 11 12  1  0  0  0  0
 12 13  1  0  0  0  0
 12 19  1  0  0  0  0
 13 22  1  0  0  0  0
M  END
$$$$
