complex
  PyMOL3.0          3D                             0

 39 45  0  0  0  0  0  0  0  0999 V2000
    1.1260   -2.0520    7.2960 Cl  0  0  0  0  0  0  0  0  0  0  0  0
    3.4920   -3.1840   11.8430 C   0  0  0  0  0  0  0  0  0  0  0  0
    3.8080  -11.8230   10.5700 C   0  0  0  0  0  0  0  0  0  0  0  0
    3.6510  -12.1550   12.0050 C   0  0  0  0  0  0  0  0  0  0  0  0
    3.3840  -10.8950   12.6590 C   0  0  0  0  0  0  0  0  0  0  0  0
    2.9780   -9.9080   11.6750 C   0  0  0  0  0  0  0  0  0  0  0  0
    2.9680  -10.5990   10.3660 C   0  0  0  0  0  0  0  0  0  0  0  0
    1.0420   -9.0610    7.1210 C   0  0  0  0  0  0  0  0  0  0  0  0
   -0.0990   -9.2120    6.3810 C   0  0  0  0  0  0  0  0  0  0  0  0
   -0.4950   -8.1330    5.5640 C   0  0  0  0  0  0  0  0  0  0  0  0
   -1.6860   -8.2000    4.8290 C   0  0  0  0  0  0  0  0  0  0  0  0
   -3.2250   -7.5590    3.4830 C   0  0  0  0  0  0  0  0  0  0  0  0
    3.6080   -4.2060   10.8740 C   0  0  0  0  0  0  0  0  0  0  0  0
    1.3600   -6.8730    6.1740 C   0  0  0  0  0  0  0  0  0  0  0  0
    1.9640   -5.6370    6.0690 C   0  0  0  0  0  0  0  0  0  0  0  0
    3.1200   -5.3920    5.3650 C   0  0  0  0  0  0  0  0  0  0  0  0
    3.0880   -3.1910    5.8280 C   0  0  0  0  0  0  0  0  0  0  0  0
    1.9050   -3.3540    6.5450 C   0  0  0  0  0  0  0  0  0  0  0  0
    1.3340   -4.5790    6.6630 C   0  0  0  0  0  0  0  0  0  0  0  0
    1.7990   -7.9060    7.0110 C   0  0  0  0  0  0  0  0  0  0  0  0
    4.7770   -5.1750    9.0640 C   0  0  0  0  0  0  0  0  0  0  0  0
    4.6640   -4.1800    9.9880 C   0  0  0  0  0  0  0  0  0  0  0  0
    2.6390   -5.1920   10.8250 C   0  0  0  0  0  0  0  0  0  0  0  0
    2.7190   -6.2000    9.9070 C   0  0  0  0  0  0  0  0  0  0  0  0
    3.8030   -6.1800    9.0060 C   0  0  0  0  0  0  0  0  0  0  0  0
    3.9560   -7.1940    7.9980 C   0  0  0  0  0  0  0  0  0  0  0  0
    2.7240   -9.2370    8.4240 C   0  0  0  0  0  0  0  0  0  0  0  0
    4.9550   -9.6600    9.2830 C   0  0  0  0  0  0  0  0  0  0  0  0
    5.5570  -10.9940    9.3140 C   0  0  0  0  0  0  0  0  0  0  0  0
    2.8730   -8.0610    7.8520 N   0  0  0  0  0  0  0  0  0  0  0  0
    3.5550   -9.7630    9.3480 N   0  0  0  0  0  0  0  0  0  0  0  0
    1.6460   -9.8580    8.0050 N   0  0  0  0  0  0  0  0  0  0  0  0
   -2.5070   -9.1990    4.7970 N   0  0  0  0  0  0  0  0  0  0  0  0
   -2.0760   -7.1950    4.0350 N   0  0  0  0  0  0  0  0  0  0  0  0
    0.2360   -7.0420    5.4680 N   0  0  0  0  0  0  0  0  0  0  0  0
    3.6390   -4.2030    5.2610 N   0  0  0  0  0  0  0  0  0  0  0  0
    5.1830  -11.6480   10.4900 O   0  0  0  0  0  0  0  0  0  0  0  0
   -3.5160   -8.7730    3.9390 O   0  0  0  0  0  0  0  0  0  0  0  0
   -3.8870   -6.8680    2.7250 O   0  0  0  0  0  0  0  0  0  0  0  0
  1 18  1  0  0  0  0
  2 13  1  0  0  0  0
  3  4  1  0  0  0  0
  3  7  1  0  0  0  0
  3 37  1  0  0  0  0
  4  5  1  0  0  0  0
  5  6  1  0  0  0  0
  6  7  1  0  0  0  0
  7 31  1  0  0  0  0
  8  9  4  0  0  0  0
  8 20  4  0  0  0  0
  8 32  4  0  0  0  0
  9 10  4  0  0  0  0
 10 11  1  0  0  0  0
 10 35  4  0  0  0  0
 11 33  4  0  0  0  0
 11 34  4  0  0  0  0
 12 34  4  0  0  0  0
 12 38  4  0  0  0  0
 12 39  2  0  0  0  0
 13 22  4  0  0  0  0
 13 23  4  0  0  0  0
 14 15  1  0  0  0  0
 14 20  4  0  0  0  0
 14 35  4  0  0  0  0
 15 16  4  0  0  0  0
 15 19  4  0  0  0  0
 16 36  4  0  0  0  0
 17 18  4  0  0  0  0
 17 36  4  0  0  0  0
 18 19  4  0  0  0  0
 20 30  4  0  0  0  0
 21 22  4  0  0  0  0
 21 25  4  0  0  0  0
 23 24  4  0  0  0  0
 24 25  4  0  0  0  0
 25 26  1  0  0  0  0
 26 30  1  0  0  0  0
 27 30  4  0  0  0  0
 27 31  1  0  0  0  0
 27 32  4  0  0  0  0
 28 29  1  0  0  0  0
 28 31  1  0  0  0  0
 29 37  1  0  0  0  0
 33 38  4  0  0  0  0
M  END
$$$$
