complex
  PyMOL3.0          3D                             0

 74 76  0  0  0  0  0  0  0  0999 V2000
   -0.1650   64.6530   11.1000 C   0  0  0  0  0  0  0  0  0  0  0  0
   -6.7250   68.7750   14.2690 C   0  0  0  0  0  0  0  0  0  0  0  0
   -7.1620   67.0910   15.5070 C   0  0  0  0  0  0  0  0  0  0  0  0
   -7.6950   65.9760   16.1190 C   0  0  0  0  0  0  0  0  0  0  0  0
   -6.9920   65.3700   17.1350 C   0  0  0  0  0  0  0  0  0  0  0  0
   -5.7740   65.7550   17.5570 C   0  0  0  0  0  0  0  0  0  0  0  0
   -5.2040   66.8380   16.9560 C   0  0  0  0  0  0  0  0  0  0  0  0
   -5.9190   67.4470   15.9380 C   0  0  0  0  0  0  0  0  0  0  0  0
   -1.0970   69.7300   16.2880 C   0  0  0  0  0  0  0  0  0  0  0  0
   -0.0360   70.8070   16.0490 C   0  0  0  0  0  0  0  0  0  0  0  0
    1.3130   70.2040   16.2460 C   0  0  0  0  0  0  0  0  0  0  0  0
    0.2560   66.0350   11.0790 C   0  0  0  0  0  0  0  0  0  0  0  0
    2.3770   71.0770   15.6850 C   0  0  0  0  0  0  0  0  0  0  0  0
    3.7450   70.5370   15.9320 C   0  0  0  0  0  0  0  0  0  0  0  0
   -0.8080   73.1070   16.4270 C   0  0  0  0  0  0  0  0  0  0  0  0
   -0.9320   74.2830   17.4030 C   0  0  0  0  0  0  0  0  0  0  0  0
   -2.2850   74.9600   17.2210 C   0  0  0  0  0  0  0  0  0  0  0  0
   -3.4030   74.1230   17.6060 C   0  0  0  0  0  0  0  0  0  0  0  0
   -4.6610   74.9050   17.5280 C   0  0  0  0  0  0  0  0  0  0  0  0
    1.2650   75.3210   17.8520 C   0  0  0  0  0  0  0  0  0  0  0  0
    2.1780   76.5380   17.6110 C   0  0  0  0  0  0  0  0  0  0  0  0
    3.4720   76.4330   18.3880 C   0  0  0  0  0  0  0  0  0  0  0  0
    1.6710   66.2300   10.6170 C   0  0  0  0  0  0  0  0  0  0  0  0
    4.4610   75.5040   17.8380 C   0  0  0  0  0  0  0  0  0  0  0  0
    5.7620   75.5950   18.5210 C   0  0  0  0  0  0  0  0  0  0  0  0
    1.1950   78.7480   17.2290 C   0  0  0  0  0  0  0  0  0  0  0  0
    0.6410   80.0410   17.8800 C   0  0  0  0  0  0  0  0  0  0  0  0
   -0.3990   80.6840   17.0160 C   0  0  0  0  0  0  0  0  0  0  0  0
   -1.2420   81.6580   17.7720 C   0  0  0  0  0  0  0  0  0  0  0  0
   -2.0390   82.5440   16.9070 C   0  0  0  0  0  0  0  0  0  0  0  0
   -0.9440   64.8800   13.9640 C   0  0  0  0  0  0  0  0  0  0  0  0
    0.0210   63.8830   15.9680 C   0  0  0  0  0  0  0  0  0  0  0  0
    0.4020   64.2500   17.4260 C   0  0  0  0  0  0  0  0  0  0  0  0
    0.1070   66.7030   12.4670 C   0  0  0  0  0  0  0  0  0  0  0  0
   -0.7700   64.6720   18.2000 C   0  0  0  0  0  0  0  0  0  0  0  0
   -1.6480   63.7550   18.7910 C   0  0  0  0  0  0  0  0  0  0  0  0
   -2.7590   64.1690   19.4940 C   0  0  0  0  0  0  0  0  0  0  0  0
   -3.0130   65.5510   19.6650 C   0  0  0  0  0  0  0  0  0  0  0  0
   -2.1230   66.4780   19.1340 C   0  0  0  0  0  0  0  0  0  0  0  0
   -1.0330   66.0310   18.4100 C   0  0  0  0  0  0  0  0  0  0  0  0
   -0.9310   62.7410   15.9360 C   0  0  0  0  0  0  0  0  0  0  0  0
   -1.1670   60.3400   15.8970 C   0  0  0  0  0  0  0  0  0  0  0  0
   -0.5780   59.4020   14.9120 C   0  0  0  0  0  0  0  0  0  0  0  0
   -1.1790   66.2890   13.1960 C   0  0  0  0  0  0  0  0  0  0  0  0
   -2.8370   67.5670   14.4020 C   0  0  0  0  0  0  0  0  0  0  0  0
   -3.1190   68.7330   15.3310 C   0  0  0  0  0  0  0  0  0  0  0  0
   -4.4060   69.5100   15.0610 C   0  0  0  0  0  0  0  0  0  0  0  0
   -5.6460   68.6720   15.1110 C   0  0  0  0  0  0  0  0  0  0  0  0
   -1.5720   67.3250   14.1400 N   0  0  0  0  0  0  0  0  0  0  0  0
   -7.6150   67.8320   14.5390 N   0  0  0  0  0  0  0  0  0  0  0  0
   -2.0030   69.5410   15.3030 N   0  0  0  0  0  0  0  0  0  0  0  0
   -0.2630   71.9780   16.8780 N   0  0  0  0  0  0  0  0  0  0  0  0
    0.1410   75.2650   17.1650 N   0  0  0  0  0  0  0  0  0  0  0  0
    1.4580   77.7770   18.0330 N   0  0  0  0  0  0  0  0  0  0  0  0
    1.7440   80.9850   18.0900 N   0  0  0  0  0  0  0  0  0  0  0  0
   -0.5740   64.9660   15.2590 N   0  0  0  0  0  0  0  0  0  0  0  0
   -0.3690   61.5180   15.9440 N   0  0  0  0  0  0  0  0  0  0  0  0
   -3.7040   66.8560   13.9490 O   0  0  0  0  0  0  0  0  0  0  0  0
    5.9130   76.5060   19.4120 O   0  0  0  0  0  0  0  0  0  0  0  0
    1.3630   78.7100   16.0920 O   0  0  0  0  0  0  0  0  0  0  0  0
   -2.6430   83.5300   17.4290 O   0  0  0  0  0  0  0  0  0  0  0  0
   -2.0300   82.3170   15.6910 O   0  0  0  0  0  0  0  0  0  0  0  0
   -1.0530   63.8280   13.3930 O   0  0  0  0  0  0  0  0  0  0  0  0
   -4.0560   65.9710   20.3320 O   0  0  0  0  0  0  0  0  0  0  0  0
   -2.1050   62.9130   15.8640 O   0  0  0  0  0  0  0  0  0  0  0  0
   -0.2260   59.9930   13.7920 O   0  0  0  0  0  0  0  0  0  0  0  0
   -1.1270   69.0880   17.2790 O   0  0  0  0  0  0  0  0  0  0  0  0
    3.8890   69.3210   16.1720 O   0  0  0  0  0  0  0  0  0  0  0  0
    4.6970   71.3350   15.8890 O   0  0  0  0  0  0  0  0  0  0  0  0
   -1.1540   73.1900   15.3080 O   0  0  0  0  0  0  0  0  0  0  0  0
   -4.8090   75.7600   18.4220 O   0  0  0  0  0  0  0  0  0  0  0  0
   -5.4400   74.7060   16.5860 O   0  0  0  0  0  0  0  0  0  0  0  0
    1.5270   74.4750   18.6510 O   0  0  0  0  0  0  0  0  0  0  0  0
    6.6740   74.8620   18.2360 O   0  0  0  0  0  0  0  0  0  0  0  0
  1 12  1  0  0  0  0
  2 48  4  0  0  0  0
  2 50  4  0  0  0  0
  3  4  4  0  0  0  0
  3  8  4  0  0  0  0
  3 50  4  0  0  0  0
  4  5  4  0  0  0  0
  5  6  4  0  0  0  0
  6  7  4  0  0  0  0
  7  8  4  0  0  0  0
  8 48  4  0  0  0  0
  9 10  1  0  0  0  0
  9 51  1  0  0  0  0
  9 67  2  0  0  0  0
 10 11  1  0  0  0  0
 10 52  1  0  0  0  0
 11 13  1  0  0  0  0
 12 23  1  0  0  0  0
 12 34  1  0  0  0  0
 13 14  1  0  0  0  0
 14 68  4  0  0  0  0
 14 69  4  0  0  0  0
 15 16  1  0  0  0  0
 15 52  1  0  0  0  0
 15 70  2  0  0  0  0
 16 17  1  0  0  0  0
 16 53  1  0  0  0  0
 17 18  1  0  0  0  0
 18 19  1  0  0  0  0
 19 71  4  0  0  0  0
 19 72  4  0  0  0  0
 20 21  1  0  0  0  0
 20 53  1  0  0  0  0
 20 73  2  0  0  0  0
 21 22  1  0  0  0  0
 21 54  1  0  0  0  0
 22 24  1  0  0  0  0
 24 25  1  0  0  0  0
 25 59  4  0  0  0  0
 25 74  4  0  0  0  0
 26 27  1  0  0  0  0
 26 54  1  0  0  0  0
 26 60  2  0  0  0  0
 27 28  1  0  0  0  0
 27 55  1  0  0  0  0
 28 29  1  0  0  0  0
 29 30  1  0  0  0  0
 30 61  4  0  0  0  0
 30 62  4  0  0  0  0
 31 44  1  0  0  0  0
 31 56  1  0  0  0  0
 31 63  2  0  0  0  0
 32 33  1  0  0  0  0
 32 41  1  0  0  0  0
 32 56  1  0  0  0  0
 33 35  1  0  0  0  0
 34 44  1  0  0  0  0
 35 36  4  0  0  0  0
 35 40  4  0  0  0  0
 36 37  4  0  0  0  0
 37 38  4  0  0  0  0
 38 39  4  0  0  0  0
 38 64  2  0  0  0  0
 39 40  4  0  0  0  0
 41 57  1  0  0  0  0
 41 65  2  0  0  0  0
 42 43  1  0  0  0  0
 42 57  1  0  0  0  0
 43 66  1  0  0  0  0
 44 49  1  0  0  0  0
 45 46  1  0  0  0  0
 45 49  1  0  0  0  0
 45 58  2  0  0  0  0
 46 47  1  0  0  0  0
 46 51  1  0  0  0  0
 47 48  1  0  0  0  0
M  END
$$$$
