complex
  PyMOL3.0          3D                             0

 54 58  0  0  0  0  0  0  0  0999 V2000
   14.5970   -8.4500  -14.2040 Cl  0  0  0  0  0  0  0  0  0  0  0  0
   13.4490    5.0200   -7.3230 C   0  0  0  0  0  0  0  0  0  0  0  0
   10.7550   -3.1100   -9.5730 C   0  0  0  0  0  0  0  0  0  0  0  0
    9.2880   -2.7920   -9.7330 C   0  0  0  0  0  0  0  0  0  0  0  0
    8.4620   -3.2800   -8.5620 C   0  0  0  0  0  0  0  0  0  0  0  0
    8.6900   -4.7740   -8.3570 C   0  0  0  0  0  0  0  0  0  0  0  0
   10.1120   -5.1310   -8.2700 C   0  0  0  0  0  0  0  0  0  0  0  0
   11.9530   -5.1590   -9.9330 C   0  0  0  0  0  0  0  0  0  0  0  0
   12.0350   -6.6370   -9.7100 C   0  0  0  0  0  0  0  0  0  0  0  0
   12.8590   -6.8910   -8.5000 C   0  0  0  0  0  0  0  0  0  0  0  0
   14.1190   -6.2480   -8.3180 C   0  0  0  0  0  0  0  0  0  0  0  0
   14.9050   -6.5400   -7.2260 C   0  0  0  0  0  0  0  0  0  0  0  0
   14.2010    2.8630   -7.4070 C   0  0  0  0  0  0  0  0  0  0  0  0
   16.7000   -5.2630   -8.1400 C   0  0  0  0  0  0  0  0  0  0  0  0
   14.4480   -7.4810   -6.2860 C   0  0  0  0  0  0  0  0  0  0  0  0
   15.1510   -6.7430   -4.1500 C   0  0  0  0  0  0  0  0  0  0  0  0
   13.2180   -8.1030   -6.4530 C   0  0  0  0  0  0  0  0  0  0  0  0
   11.4680   -8.9070   -5.1650 C   0  0  0  0  0  0  0  0  0  0  0  0
   12.4470   -7.8300   -7.5530 C   0  0  0  0  0  0  0  0  0  0  0  0
   12.4900   -7.3370  -10.8740 C   0  0  0  0  0  0  0  0  0  0  0  0
   12.0070   -8.5820  -11.2990 C   0  0  0  0  0  0  0  0  0  0  0  0
   12.6690   -9.0640  -12.4470 C   0  0  0  0  0  0  0  0  0  0  0  0
   13.6170   -8.1820  -12.8570 C   0  0  0  0  0  0  0  0  0  0  0  0
   13.4560    2.5310   -6.3210 C   0  0  0  0  0  0  0  0  0  0  0  0
   11.9550   -2.7760   -5.3130 C   0  0  0  0  0  0  0  0  0  0  0  0
   12.2210   -4.1150   -5.0790 C   0  0  0  0  0  0  0  0  0  0  0  0
   11.6190   -4.7110   -3.9750 C   0  0  0  0  0  0  0  0  0  0  0  0
   10.8040   -3.9600   -3.1370 C   0  0  0  0  0  0  0  0  0  0  0  0
   10.5530   -2.6080   -3.4090 C   0  0  0  0  0  0  0  0  0  0  0  0
    9.0030   -2.4040   -1.5710 C   0  0  0  0  0  0  0  0  0  0  0  0
    9.8790   -2.7780   -0.3950 C   0  0  0  0  0  0  0  0  0  0  0  0
   11.1150   -2.0170   -4.5070 C   0  0  0  0  0  0  0  0  0  0  0  0
   15.2390    0.7080   -7.3630 C   0  0  0  0  0  0  0  0  0  0  0  0
   15.1070    1.9680   -7.9360 C   0  0  0  0  0  0  0  0  0  0  0  0
   13.5740    1.2950   -5.7300 C   0  0  0  0  0  0  0  0  0  0  0  0
   16.9050    1.6080   -9.3900 C   0  0  0  0  0  0  0  0  0  0  0  0
   14.4570    0.3440   -6.2510 C   0  0  0  0  0  0  0  0  0  0  0  0
   14.6170   -0.9650   -5.6410 C   0  0  0  0  0  0  0  0  0  0  0  0
   14.0750   -2.0640   -6.5740 C   0  0  0  0  0  0  0  0  0  0  0  0
   12.5670   -2.1600   -6.4820 C   0  0  0  0  0  0  0  0  0  0  0  0
   11.3810   -2.2600   -8.4990 C   0  0  0  0  0  0  0  0  0  0  0  0
   10.9430   -4.5240   -9.2870 N   0  0  0  0  0  0  0  0  0  0  0  0
   14.1460    4.0550   -8.0420 O   0  0  0  0  0  0  0  0  0  0  0  0
   11.1150   -2.4830   -0.4300 O   0  0  0  0  0  0  0  0  0  0  0  0
   15.8090    2.3490   -9.0170 O   0  0  0  0  0  0  0  0  0  0  0  0
   12.0860   -2.9470   -7.5810 O   0  0  0  0  0  0  0  0  0  0  0  0
   11.2350   -1.0810   -8.4540 O   0  0  0  0  0  0  0  0  0  0  0  0
   12.7180   -4.5660  -10.6790 O   0  0  0  0  0  0  0  0  0  0  0  0
   16.1040   -5.9470   -7.0480 O   0  0  0  0  0  0  0  0  0  0  0  0
   15.1740   -7.7600   -5.2100 O   0  0  0  0  0  0  0  0  0  0  0  0
   12.8250   -9.0370   -5.5810 O   0  0  0  0  0  0  0  0  0  0  0  0
    9.7620   -1.8630   -2.6200 O   0  0  0  0  0  0  0  0  0  0  0  0
    9.3250   -3.3680    0.5480 O   0  0  0  0  0  0  0  0  0  0  0  0
   13.7170   -6.8260  -11.8650 S   0  0  0  0  0  0  0  0  0  0  0  0
  1 23  1  0  0  0  0
  2 43  1  0  0  0  0
  3  4  1  0  0  0  0
  3 41  1  0  0  0  0
  3 42  1  0  0  0  0
  4  5  1  0  0  0  0
  5  6  1  0  0  0  0
  6  7  1  0  0  0  0
  7 42  1  0  0  0  0
  8  9  1  0  0  0  0
  8 42  1  0  0  0  0
  8 48  2  0  0  0  0
  9 10  1  0  0  0  0
  9 20  1  0  0  0  0
 10 11  4  0  0  0  0
 10 19  4  0  0  0  0
 11 12  4  0  0  0  0
 12 15  4  0  0  0  0
 12 49  1  0  0  0  0
 13 24  4  0  0  0  0
 13 34  4  0  0  0  0
 13 43  1  0  0  0  0
 14 49  1  0  0  0  0
 15 17  4  0  0  0  0
 15 50  1  0  0  0  0
 16 50  1  0  0  0  0
 17 19  4  0  0  0  0
 17 51  1  0  0  0  0
 18 51  1  0  0  0  0
 20 21  4  0  0  0  0
 20 54  4  0  0  0  0
 21 22  4  0  0  0  0
 22 23  4  0  0  0  0
 23 54  4  0  0  0  0
 24 35  4  0  0  0  0
 25 26  4  0  0  0  0
 25 32  4  0  0  0  0
 25 40  1  0  0  0  0
 26 27  4  0  0  0  0
 27 28  4  0  0  0  0
 28 29  4  0  0  0  0
 29 32  4  0  0  0  0
 29 52  1  0  0  0  0
 30 31  1  0  0  0  0
 30 52  1  0  0  0  0
 31 44  4  0  0  0  0
 31 53  4  0  0  0  0
 33 34  4  0  0  0  0
 33 37  4  0  0  0  0
 34 45  1  0  0  0  0
 35 37  4  0  0  0  0
 36 45  1  0  0  0  0
 37 38  1  0  0  0  0
 38 39  1  0  0  0  0
 39 40  1  0  0  0  0
 40 46  1  0  0  0  0
 41 46  1  0  0  0  0
 41 47  2  0  0  0  0
M  END
$$$$
