complex
  PyMOL3.0          3D                             0

 28 30  0  0  0  0  0  0  0  0999 V2000
  357.8500  209.7000  300.0180 P   0  0  0  0  0  0  0  0  0  0  0  0
  359.8720  211.0140  298.6650 P   0  0  0  0  0  0  0  0  0  0  0  0
  356.7980  202.2960  304.4040 C   0  0  0  0  0  0  0  0  0  0  0  0
  358.2150  201.9920  302.5630 C   0  0  0  0  0  0  0  0  0  0  0  0
  358.0280  204.1150  303.6710 C   0  0  0  0  0  0  0  0  0  0  0  0
  358.5870  203.3330  302.6650 C   0  0  0  0  0  0  0  0  0  0  0  0
  359.3930  205.3050  302.5190 C   0  0  0  0  0  0  0  0  0  0  0  0
  358.2120  206.4590  304.3890 C   0  0  0  0  0  0  0  0  0  0  0  0
  358.5600  208.5270  303.5210 C   0  0  0  0  0  0  0  0  0  0  0  0
  358.9880  208.8440  302.1060 C   0  0  0  0  0  0  0  0  0  0  0  0
  359.7620  208.1960  304.3310 C   0  0  0  0  0  0  0  0  0  0  0  0
  359.3580  206.9750  305.0600 C   0  0  0  0  0  0  0  0  0  0  0  0
  355.9190  201.7450  305.2590 N   0  0  0  0  0  0  0  0  0  0  0  0
  357.1480  203.5950  304.5310 N   0  0  0  0  0  0  0  0  0  0  0  0
  359.4330  204.1260  301.9630 N   0  0  0  0  0  0  0  0  0  0  0  0
  358.5520  205.3110  303.5590 N   0  0  0  0  0  0  0  0  0  0  0  0
  357.3110  201.5320  303.4600 N   0  0  0  0  0  0  0  0  0  0  0  0
  357.7080  207.4330  303.5320 O   0  0  0  0  0  0  0  0  0  0  0  0
  358.9570  207.3010  306.3740 O   0  0  0  0  0  0  0  0  0  0  0  0
  358.6660  201.2670  301.7080 O   0  0  0  0  0  0  0  0  0  0  0  0
  358.0900  209.7250  301.5640 O   0  0  0  0  0  0  0  0  0  0  0  0
  357.1110  210.9050  299.7000 O   0  5  0  0  0  0  0  0  0  0  0  0
  357.1970  208.4390  299.6650 O   0  0  0  0  0  0  0  0  0  0  0  0
  359.3070  209.7830  299.3490 O   0  0  0  0  0  0  0  0  0  0  0  0
  359.5830  212.2200  299.4900 O   0  0  0  0  0  0  0  0  0  0  0  0
  361.3740  210.7510  298.5150 O   0  5  0  0  0  0  0  0  0  0  0  0
  359.2210  211.1200  297.3270 O   0  0  0  0  0  0  0  0  0  0  0  0
  360.0390  209.2480  305.2120 O   0  0  0  0  0  0  0  0  0  0  0  0
  1 21  1  0  0  0  0
  1 22  1  0  0  0  0
  1 23  2  0  0  0  0
  1 24  1  0  0  0  0
  2 24  1  0  0  0  0
  2 25  1  0  0  0  0
  2 26  1  0  0  0  0
  2 27  2  0  0  0  0
  3 13  1  0  0  0  0
  3 14  4  0  0  0  0
  3 17  4  0  0  0  0
  4  6  4  0  0  0  0
  4 17  4  0  0  0  0
  4 20  2  0  0  0  0
  5  6  4  0  0  0  0
  5 14  4  0  0  0  0
  5 16  4  0  0  0  0
  6 15  4  0  0  0  0
  7 15  4  0  0  0  0
  7 16  4  0  0  0  0
  8 12  1  0  0  0  0
  8 16  1  0  0  0  0
  8 18  1  0  0  0  0
  9 10  1  0  0  0  0
  9 11  1  0  0  0  0
  9 18  1  0  0  0  0
 10 21  1  0  0  0  0
 11 12  1  0  0  0  0
 11 28  1  0  0  0  0
 12 19  1  0  0  0  0
M  END
$$$$
