complex
  PyMOL3.0          3D                             0

 29 32  0  0  0  0  0  0  0  0999 V2000
  -17.4590   53.5510   -4.9420 C   0  0  0  0  0  0  0  0  0  0  0  0
  -13.1500   55.8310   -6.9880 C   0  0  0  0  0  0  0  0  0  0  0  0
  -13.8950   57.0620   -7.3150 C   0  0  0  0  0  0  0  0  0  0  0  0
  -12.9890   58.2190   -7.3180 C   0  0  0  0  0  0  0  0  0  0  0  0
  -11.6250   59.7400   -6.7690 C   0  0  0  0  0  0  0  0  0  0  0  0
  -10.7550   60.5660   -6.0190 C   0  0  0  0  0  0  0  0  0  0  0  0
  -10.1320   61.6770   -6.5860 C   0  0  0  0  0  0  0  0  0  0  0  0
   -9.2840   62.4570   -5.8720 C   0  0  0  0  0  0  0  0  0  0  0  0
   -9.0080   62.1570   -4.5760 C   0  0  0  0  0  0  0  0  0  0  0  0
   -9.6070   61.0440   -3.9880 C   0  0  0  0  0  0  0  0  0  0  0  0
  -10.4510   60.2720   -4.7130 C   0  0  0  0  0  0  0  0  0  0  0  0
  -16.5790   51.3080   -7.4550 C   0  0  0  0  0  0  0  0  0  0  0  0
  -13.2200   58.8030   -9.7360 C   0  0  0  0  0  0  0  0  0  0  0  0
  -15.5240   52.1560   -7.5830 C   0  0  0  0  0  0  0  0  0  0  0  0
  -14.4310   52.0500   -8.5960 C   0  0  0  0  0  0  0  0  0  0  0  0
  -12.9220   50.5570   -9.8190 C   0  0  0  0  0  0  0  0  0  0  0  0
  -12.8970   49.1640   -9.2510 C   0  0  0  0  0  0  0  0  0  0  0  0
  -13.9080   49.6610   -8.1470 C   0  0  0  0  0  0  0  0  0  0  0  0
  -15.6990   53.1390   -6.6360 C   0  0  0  0  0  0  0  0  0  0  0  0
  -14.8640   54.2770   -6.2830 C   0  0  0  0  0  0  0  0  0  0  0  0
  -16.8100   52.8290   -6.0180 N   0  0  0  0  0  0  0  0  0  0  0  0
  -17.3260   51.7690   -6.4880 N   0  0  0  0  0  0  0  0  0  0  0  0
  -13.8750   50.9100   -8.8140 N   0  0  0  0  0  0  0  0  0  0  0  0
  -13.9780   54.6880   -7.2000 N   0  0  0  0  0  0  0  0  0  0  0  0
  -12.3050   58.7060   -6.2520 N   0  0  0  0  0  0  0  0  0  0  0  0
  -11.8890   59.8910   -8.0670 N   0  0  0  0  0  0  0  0  0  0  0  0
  -12.7070   58.9590   -8.4070 N   0  0  0  0  0  0  0  0  0  0  0  0
  -14.0920   52.9850   -9.1890 O   0  0  0  0  0  0  0  0  0  0  0  0
  -14.9900   54.8310   -5.2200 O   0  0  0  0  0  0  0  0  0  0  0  0
  1 21  1  0  0  0  0
  2  3  1  0  0  0  0
  2 24  1  0  0  0  0
  3  4  1  0  0  0  0
  4 25  4  0  0  0  0
  4 27  4  0  0  0  0
  5  6  1  0  0  0  0
  5 25  4  0  0  0  0
  5 26  4  0  0  0  0
  6  7  4  0  0  0  0
  6 11  4  0  0  0  0
  7  8  4  0  0  0  0
  8  9  4  0  0  0  0
  9 10  4  0  0  0  0
 10 11  4  0  0  0  0
 12 14  4  0  0  0  0
 12 22  4  0  0  0  0
 13 27  1  0  0  0  0
 14 15  1  0  0  0  0
 14 19  4  0  0  0  0
 15 23  1  0  0  0  0
 15 28  2  0  0  0  0
 16 17  1  0  0  0  0
 16 23  1  0  0  0  0
 17 18  1  0  0  0  0
 18 23  1  0  0  0  0
 19 20  1  0  0  0  0
 19 21  4  0  0  0  0
 20 24  1  0  0  0  0
 20 29  2  0  0  0  0
 21 22  4  0  0  0  0
 26 27  4  0  0  0  0
M  END
$$$$
