complex
  PyMOL3.0          3D                             0

 27 26  0  0  0  0  0  0  0  0999 V2000
  -39.6860  -19.7920   20.9810 C   0  0  0  0  0  0  0  0  0  0  0  0
  -33.6110  -16.2490   16.1370 C   0  0  0  0  0  0  0  0  0  0  0  0
  -34.1170  -15.0170   16.7790 C   0  0  0  0  0  0  0  0  0  0  0  0
  -33.7890  -16.1980   14.6670 C   0  0  0  0  0  0  0  0  0  0  0  0
  -30.8290  -18.1050   20.3630 C   0  0  0  0  0  0  0  0  0  0  0  0
  -29.1930  -17.5550   22.0520 C   0  0  0  0  0  0  0  0  0  0  0  0
  -28.8400  -16.1160   22.3070 C   0  0  0  0  0  0  0  0  0  0  0  0
  -28.9670  -18.4440   23.2280 C   0  0  0  0  0  0  0  0  0  0  0  0
  -28.0670  -19.5530   22.9070 C   0  0  0  0  0  0  0  0  0  0  0  0
  -38.5180  -19.5370   21.8740 C   0  0  0  0  0  0  0  0  0  0  0  0
  -36.1680  -19.3850   22.0250 C   0  0  0  0  0  0  0  0  0  0  0  0
  -35.0430  -19.9900   21.3130 C   0  0  0  0  0  0  0  0  0  0  0  0
  -33.8710  -19.0860   21.3420 C   0  0  0  0  0  0  0  0  0  0  0  0
  -32.9530  -19.2590   20.2080 C   0  0  0  0  0  0  0  0  0  0  0  0
  -32.2640  -18.0090   19.8840 C   0  0  0  0  0  0  0  0  0  0  0  0
  -32.0260  -16.5780   17.9360 C   0  0  0  0  0  0  0  0  0  0  0  0
  -32.1350  -16.4270   16.4450 C   0  0  0  0  0  0  0  0  0  0  0  0
  -37.3720  -19.5580   21.3010 N   0  0  0  0  0  0  0  0  0  0  0  0
  -32.2820  -17.7800   18.4400 N   0  0  0  0  0  0  0  0  0  0  0  0
  -31.3630  -15.3240   16.0110 N   0  0  0  0  0  0  0  0  0  0  0  0
  -30.5430  -17.6070   21.5850 N   0  0  0  0  0  0  0  0  0  0  0  0
  -28.2490  -20.1760   21.7790 N   0  0  0  0  0  0  0  0  0  0  0  0
  -38.6760  -19.3450   23.0630 O   0  0  0  0  0  0  0  0  0  0  0  0
  -31.7510  -15.6430   18.6160 O   0  0  0  0  0  0  0  0  0  0  0  0
  -29.9710  -18.5850   19.6930 O   0  0  0  0  0  0  0  0  0  0  0  0
  -28.6410  -15.4610   21.1600 O   0  0  0  0  0  0  0  0  0  0  0  0
  -27.2000  -19.8350   23.6710 O   0  0  0  0  0  0  0  0  0  0  0  0
  1 10  1  0  0  0  0
  2  3  1  0  0  0  0
  2  4  1  0  0  0  0
  2 17  1  0  0  0  0
  5 15  1  0  0  0  0
  5 21  1  0  0  0  0
  5 25  2  0  0  0  0
  6  7  1  0  0  0  0
  6  8  1  0  0  0  0
  6 21  1  0  0  0  0
  7 26  1  0  0  0  0
  8  9  1  0  0  0  0
  9 22  1  0  0  0  0
  9 27  2  0  0  0  0
 10 18  1  0  0  0  0
 10 23  2  0  0  0  0
 11 12  1  0  0  0  0
 11 18  1  0  0  0  0
 12 13  1  0  0  0  0
 13 14  1  0  0  0  0
 14 15  1  0  0  0  0
 15 19  1  0  0  0  0
 16 17  1  0  0  0  0
 16 19  1  0  0  0  0
 16 24  2  0  0  0  0
 17 20  1  0  0  0  0
M  END
$$$$
