complex
  PyMOL3.0          3D                             0

 61 61  0  0  0  0  0  0  0  0999 V2000
  187.6970  162.7700  222.4970 C   0  0  0  0  0  0  0  0  0  0  0  0
  181.3960  161.6370  220.2820 C   0  0  0  0  0  0  0  0  0  0  0  0
  181.7560  159.7070  218.7860 C   0  0  0  0  0  0  0  0  0  0  0  0
  184.1510  164.0080  219.1720 C   0  0  0  0  0  0  0  0  0  0  0  0
  183.5790  164.8950  218.1000 C   0  0  0  0  0  0  0  0  0  0  0  0
  183.3320  166.2850  218.6620 C   0  0  0  0  0  0  0  0  0  0  0  0
  182.8740  167.2530  217.6040 C   0  0  0  0  0  0  0  0  0  0  0  0
  183.0030  168.6590  218.1490 C   0  0  0  0  0  0  0  0  0  0  0  0
  182.4130  163.5160  216.5300 C   0  0  0  0  0  0  0  0  0  0  0  0
  181.0860  163.0320  215.9820 C   0  0  0  0  0  0  0  0  0  0  0  0
  181.3180  162.4970  214.5950 C   0  0  0  0  0  0  0  0  0  0  0  0
  188.6740  163.4090  221.6310 C   0  0  0  0  0  0  0  0  0  0  0  0
  180.6580  161.2000  214.4250 C   0  0  0  0  0  0  0  0  0  0  0  0
  181.0840  160.1210  215.2260 C   0  0  0  0  0  0  0  0  0  0  0  0
  180.4440  158.9220  215.1250 C   0  0  0  0  0  0  0  0  0  0  0  0
  179.3780  158.7490  214.2560 C   0  0  0  0  0  0  0  0  0  0  0  0
  178.9880  159.8290  213.4650 C   0  0  0  0  0  0  0  0  0  0  0  0
  179.6340  161.0390  213.5610 C   0  0  0  0  0  0  0  0  0  0  0  0
  179.1160  164.1800  216.8670 C   0  0  0  0  0  0  0  0  0  0  0  0
  178.2620  165.4310  216.8090 C   0  0  0  0  0  0  0  0  0  0  0  0
  175.9410  166.0470  216.8900 C   0  0  0  0  0  0  0  0  0  0  0  0
  174.6600  166.1290  217.6600 C   0  0  0  0  0  0  0  0  0  0  0  0
  189.0240  162.6190  220.3940 C   0  0  0  0  0  0  0  0  0  0  0  0
  173.4410  165.8670  216.7730 C   0  0  0  0  0  0  0  0  0  0  0  0
  173.6420  164.6670  215.9310 C   0  0  0  0  0  0  0  0  0  0  0  0
  179.0900  166.5380  217.5420 C   0  0  0  0  0  0  0  0  0  0  0  0
  179.3240  166.1650  218.9600 C   0  0  0  0  0  0  0  0  0  0  0  0
  178.3960  167.8380  217.4570 C   0  0  0  0  0  0  0  0  0  0  0  0
  179.2460  168.9260  218.0110 C   0  0  0  0  0  0  0  0  0  0  0  0
  188.4260  160.2050  220.7740 C   0  0  0  0  0  0  0  0  0  0  0  0
  187.9500  157.8430  220.9310 C   0  0  0  0  0  0  0  0  0  0  0  0
  188.4000  157.0990  219.7220 C   0  0  0  0  0  0  0  0  0  0  0  0
  186.8310  157.2280  221.6550 C   0  0  0  0  0  0  0  0  0  0  0  0
  189.0720  163.5360  219.2020 C   0  0  0  0  0  0  0  0  0  0  0  0
  187.1940  155.8510  222.0660 C   0  0  0  0  0  0  0  0  0  0  0  0
  188.2860  154.2820  223.9080 C   0  0  0  0  0  0  0  0  0  0  0  0
  188.0410  161.4820  220.1000 C   0  0  0  0  0  0  0  0  0  0  0  0
  185.7170  161.4780  219.6260 C   0  0  0  0  0  0  0  0  0  0  0  0
  184.2960  161.7760  220.1270 C   0  0  0  0  0  0  0  0  0  0  0  0
  183.6390  160.4270  220.2360 C   0  0  0  0  0  0  0  0  0  0  0  0
  182.1200  160.3320  220.1470 C   0  0  0  0  0  0  0  0  0  0  0  0
  186.7160  161.7800  220.4660 N   0  0  0  0  0  0  0  0  0  0  0  0
  183.7450  162.7340  219.1810 N   0  0  0  0  0  0  0  0  0  0  0  0
  182.4450  169.6300  217.4790 N   0  0  0  0  0  0  0  0  0  0  0  0
  182.3790  164.3560  217.4980 N   0  0  0  0  0  0  0  0  0  0  0  0
  180.0410  164.0800  215.9430 N   0  0  0  0  0  0  0  0  0  0  0  0
  176.9630  165.3810  217.4180 N   0  0  0  0  0  0  0  0  0  0  0  0
  174.5410  167.5060  218.2310 N   0  0  0  0  0  0  0  0  0  0  0  0
  187.5850  159.2070  220.5750 N   0  0  0  0  0  0  0  0  0  0  0  0
  185.8990  160.9930  218.5590 O   0  0  0  0  0  0  0  0  0  0  0  0
  189.4410  160.0970  221.4130 O   0  0  0  0  0  0  0  0  0  0  0  0
  189.1520  157.8510  218.8800 O   0  0  0  0  0  0  0  0  0  0  0  0
  184.9700  164.3830  219.9570 O   0  0  0  0  0  0  0  0  0  0  0  0
  183.5930  168.8240  219.1660 O   0  0  0  0  0  0  0  0  0  0  0  0
  183.5090  163.1080  216.1460 O   0  0  0  0  0  0  0  0  0  0  0  0
  178.7800  157.5720  214.1810 O   0  0  0  0  0  0  0  0  0  0  0  0
  179.0350  163.3330  217.7140 O   0  0  0  0  0  0  0  0  0  0  0  0
  175.9900  166.5820  215.8090 O   0  0  0  0  0  0  0  0  0  0  0  0
  173.8500  164.8380  214.6990 O   0  0  0  0  0  0  0  0  0  0  0  0
  173.5540  163.5390  216.4610 O   0  0  0  0  0  0  0  0  0  0  0  0
  187.5850  155.8570  223.7800 S   0  0  0  0  0  0  0  0  0  0  0  0
  1 12  1  0  0  0  0
  2 41  1  0  0  0  0
  3 41  1  0  0  0  0
  4  5  1  0  0  0  0
  4 43  1  0  0  0  0
  4 53  2  0  0  0  0
  5  6  1  0  0  0  0
  5 45  1  0  0  0  0
  6  7  1  0  0  0  0
  7  8  1  0  0  0  0
  8 44  1  0  0  0  0
  8 54  2  0  0  0  0
  9 10  1  0  0  0  0
  9 45  1  0  0  0  0
  9 55  2  0  0  0  0
 10 11  1  0  0  0  0
 10 46  1  0  0  0  0
 11 13  1  0  0  0  0
 12 23  1  0  0  0  0
 13 14  4  0  0  0  0
 13 18  4  0  0  0  0
 14 15  4  0  0  0  0
 15 16  4  0  0  0  0
 16 17  4  0  0  0  0
 16 56  1  0  0  0  0
 17 18  4  0  0  0  0
 19 20  1  0  0  0  0
 19 46  1  0  0  0  0
 19 57  2  0  0  0  0
 20 26  1  0  0  0  0
 20 47  1  0  0  0  0
 21 22  1  0  0  0  0
 21 47  1  0  0  0  0
 21 58  2  0  0  0  0
 22 24  1  0  0  0  0
 22 48  1  0  0  0  0
 23 34  1  0  0  0  0
 23 37  1  0  0  0  0
 24 25  1  0  0  0  0
 25 59  4  0  0  0  0
 25 60  4  0  0  0  0
 26 27  1  0  0  0  0
 26 28  1  0  0  0  0
 28 29  1  0  0  0  0
 30 37  1  0  0  0  0
 30 49  1  0  0  0  0
 30 51  2  0  0  0  0
 31 32  1  0  0  0  0
 31 33  1  0  0  0  0
 31 49  1  0  0  0  0
 32 52  1  0  0  0  0
 33 35  1  0  0  0  0
 35 61  1  0  0  0  0
 36 61  1  0  0  0  0
 37 42  1  0  0  0  0
 38 39  1  0  0  0  0
 38 42  1  0  0  0  0
 38 50  2  0  0  0  0
 39 40  1  0  0  0  0
 39 43  1  0  0  0  0
 40 41  1  0  0  0  0
M  END
$$$$
