complex
  PyMOL3.0          3D                             0

 39 42  0  0  0  0  0  0  0  0999 V2000
   37.1050  -11.2550   -3.3260 C   0  0  0  0  0  0  0  0  0  0  0  0
   36.4880  -10.4060   -5.9230 C   0  0  0  0  0  0  0  0  0  0  0  0
   35.5730   -9.8470   -6.8620 C   0  0  0  0  0  0  0  0  0  0  0  0
   35.0860   -8.5640   -6.2930 C   0  0  0  0  0  0  0  0  0  0  0  0
   35.9450   -8.2020   -5.0960 C   0  0  0  0  0  0  0  0  0  0  0  0
   36.7310   -6.9400   -5.3620 C   0  0  0  0  0  0  0  0  0  0  0  0
   38.0960   -7.3520   -5.5410 C   0  0  0  0  0  0  0  0  0  0  0  0
   39.1180   -6.2980   -5.7770 C   0  0  0  0  0  0  0  0  0  0  0  0
   39.0770   -5.2140   -4.7190 C   0  0  0  0  0  0  0  0  0  0  0  0
   40.2750   -4.3300   -4.7090 C   0  0  0  0  0  0  0  0  0  0  0  0
   40.2480   -3.3190   -3.6200 C   0  0  0  0  0  0  0  0  0  0  0  0
   37.0610   -9.8520   -3.5810 C   0  0  0  0  0  0  0  0  0  0  0  0
   41.4120   -2.4370   -3.5800 C   0  0  0  0  0  0  0  0  0  0  0  0
   41.3130   -1.3710   -2.4980 C   0  0  0  0  0  0  0  0  0  0  0  0
   42.4360   -1.4010   -1.5080 C   0  0  0  0  0  0  0  0  0  0  0  0
   42.1850   -2.3610   -0.4080 C   0  0  0  0  0  0  0  0  0  0  0  0
   43.0690   -2.1350    0.7830 C   0  0  0  0  0  0  0  0  0  0  0  0
   43.0900   -3.3020    1.6970 C   0  0  0  0  0  0  0  0  0  0  0  0
   38.2020   -8.7090   -5.4250 C   0  0  0  0  0  0  0  0  0  0  0  0
   39.3310   -9.4420   -5.9150 C   0  0  0  0  0  0  0  0  0  0  0  0
   40.1750  -10.1310   -5.0650 C   0  0  0  0  0  0  0  0  0  0  0  0
   41.1780  -10.8640   -5.5570 C   0  0  0  0  0  0  0  0  0  0  0  0
   37.1700   -9.0130   -2.3970 C   0  0  0  0  0  0  0  0  0  0  0  0
   41.4050  -10.8940   -6.9050 C   0  0  0  0  0  0  0  0  0  0  0  0
   40.6080  -10.1990   -7.7470 C   0  0  0  0  0  0  0  0  0  0  0  0
   39.5800   -9.4600   -7.2860 C   0  0  0  0  0  0  0  0  0  0  0  0
   38.1460   -8.0370   -2.2900 C   0  0  0  0  0  0  0  0  0  0  0  0
   38.2310   -7.2850   -1.1670 C   0  0  0  0  0  0  0  0  0  0  0  0
   37.3550   -7.4850   -0.1130 C   0  0  0  0  0  0  0  0  0  0  0  0
   36.3890   -8.4460   -0.2140 C   0  0  0  0  0  0  0  0  0  0  0  0
   36.2790   -9.2140   -1.3460 C   0  0  0  0  0  0  0  0  0  0  0  0
   36.9510   -9.3050   -4.9540 C   0  0  0  0  0  0  0  0  0  0  0  0
   35.1930   -7.5780   -7.3220 N   0  0  0  0  0  0  0  0  0  0  0  0
   32.6940   -7.3300   -7.5200 N   0  0  0  0  0  0  0  0  0  0  0  0
   34.0700   -5.4580   -6.7720 O   0  0  0  0  0  0  0  0  0  0  0  0
   34.1640   -6.1850   -9.0760 O   0  0  0  0  0  0  0  0  0  0  0  0
   43.2640   -4.4310    1.1960 O   0  0  0  0  0  0  0  0  0  0  0  0
   42.9370   -3.1010    2.9110 O   0  0  0  0  0  0  0  0  0  0  0  0
   34.0070   -6.5740   -7.6960 S   0  0  0  0  0  0  0  0  0  0  0  0
  1 12  1  0  0  0  0
  2  3  1  0  0  0  0
  2 32  1  0  0  0  0
  3  4  1  0  0  0  0
  4  5  1  0  0  0  0
  4 33  1  0  0  0  0
  5  6  1  0  0  0  0
  5 32  1  0  0  0  0
  6  7  1  0  0  0  0
  7  8  1  0  0  0  0
  7 19  1  0  0  0  0
  8  9  1  0  0  0  0
  9 10  1  0  0  0  0
 10 11  1  0  0  0  0
 11 13  1  0  0  0  0
 12 23  1  0  0  0  0
 12 32  1  0  0  0  0
 13 14  1  0  0  0  0
 14 15  1  0  0  0  0
 15 16  1  0  0  0  0
 16 17  1  0  0  0  0
 17 18  1  0  0  0  0
 18 37  4  0  0  0  0
 18 38  4  0  0  0  0
 19 20  1  0  0  0  0
 19 32  1  0  0  0  0
 20 21  4  0  0  0  0
 20 26  4  0  0  0  0
 21 22  4  0  0  0  0
 22 24  4  0  0  0  0
 23 27  4  0  0  0  0
 23 31  4  0  0  0  0
 24 25  4  0  0  0  0
 25 26  4  0  0  0  0
 27 28  4  0  0  0  0
 28 29  4  0  0  0  0
 29 30  4  0  0  0  0
 30 31  4  0  0  0  0
 33 39  1  0  0  0  0
 34 39  1  0  0  0  0
 35 39  2  0  0  0  0
 36 39  2  0  0  0  0
M  END
$$$$
