complex
  PyMOL3.0          3D                             0

 12 12  0  0  0  0  0  0  0  0999 V2000
  -73.4430  -92.4140    7.8160 C   0  0  0  0  0  0  0  0  0  0  0  0
  -73.2030  -90.9880    7.3500 C   0  0  0  0  0  0  0  0  0  0  0  0
  -73.6870  -89.9530    8.1230 C   0  0  0  0  0  0  0  0  0  0  0  0
  -73.4880  -88.6760    7.6840 C   0  0  0  0  0  0  0  0  0  0  0  0
  -72.8480  -88.4270    6.5280 C   0  0  0  0  0  0  0  0  0  0  0  0
  -72.6450  -87.0090    6.0810 C   0  0  0  0  0  0  0  0  0  0  0  0
  -72.3810  -89.4640    5.7510 C   0  0  0  0  0  0  0  0  0  0  0  0
  -72.5700  -90.7530    6.1650 C   0  0  0  0  0  0  0  0  0  0  0  0
  -73.1960  -93.3450    7.0120 O   0  0  0  0  0  0  0  0  0  0  0  0
  -73.8710  -92.6360    8.9740 O   0  0  0  0  0  0  0  0  0  0  0  0
  -72.7020  -86.0980    6.9480 O   0  0  0  0  0  0  0  0  0  0  0  0
  -72.4110  -86.7550    4.8930 O   0  0  0  0  0  0  0  0  0  0  0  0
  1  2  1  0  0  0  0
  1  9  4  0  0  0  0
  1 10  4  0  0  0  0
  2  3  4  0  0  0  0
  2  8  4  0  0  0  0
  3  4  4  0  0  0  0
  4  5  4  0  0  0  0
  5  6  1  0  0  0  0
  5  7  4  0  0  0  0
  6 11  4  0  0  0  0
  6 12  4  0  0  0  0
  7  8  4  0  0  0  0
M  END
$$$$
