complex
  PyMOL3.0          3D                             0

 14 14  0  0  0  0  0  0  0  0999 V2000
   55.1420  -59.0330   -5.2910 C   0  0  0  0  0  0  0  0  0  0  0  0
   53.7670  -59.5490   -5.2990 C   0  0  0  0  0  0  0  0  0  0  0  0
   52.3380  -61.4450   -4.9320 C   0  0  0  0  0  0  0  0  0  0  0  0
   52.1480  -62.2720   -6.1830 C   0  0  0  0  0  0  0  0  0  0  0  0
   50.7220  -63.7890   -5.0970 C   0  0  0  0  0  0  0  0  0  0  0  0
   49.3940  -64.4220   -5.2580 C   0  0  0  0  0  0  0  0  0  0  0  0
   50.8690  -63.0550   -3.7840 C   0  0  0  0  0  0  0  0  0  0  0  0
   52.1450  -62.3160   -3.7150 C   0  0  0  0  0  0  0  0  0  0  0  0
   53.5900  -60.7880   -4.9270 N   0  0  0  0  0  0  0  0  0  0  0  0
   52.8310  -58.8820   -5.6500 O   0  0  0  0  0  0  0  0  0  0  0  0
   50.8960  -62.8940   -6.1980 O   0  0  0  0  0  0  0  0  0  0  0  0
   49.2300  -64.9580   -6.5240 O   0  0  0  0  0  0  0  0  0  0  0  0
   50.7350  -63.9780   -2.7460 O   0  0  0  0  0  0  0  0  0  0  0  0
   52.2310  -61.6000   -2.5780 O   0  0  0  0  0  0  0  0  0  0  0  0
  1  2  1  0  0  0  0
  2  9  1  0  0  0  0
  2 10  2  0  0  0  0
  3  4  1  0  0  0  0
  3  8  1  0  0  0  0
  3  9  1  0  0  0  0
  4 11  1  0  0  0  0
  5  6  1  0  0  0  0
  5  7  1  0  0  0  0
  5 11  1  0  0  0  0
  6 12  1  0  0  0  0
  7  8  1  0  0  0  0
  7 13  1  0  0  0  0
  8 14  1  0  0  0  0
M  END
$$$$
