complex
  PyMOL3.0          3D                             0

 61 62  0  0  0  0  0  0  0  0999 V2000
  -40.7810  -82.0150  -38.8700 C   0  0  0  0  0  0  0  0  0  0  0  0
  -40.2500  -78.1350  -33.3840 C   0  0  0  0  0  0  0  0  0  0  0  0
  -38.7710  -79.7800  -34.3950 C   0  0  0  0  0  0  0  0  0  0  0  0
  -37.6940  -80.0210  -35.3990 C   0  0  0  0  0  0  0  0  0  0  0  0
  -38.0900  -80.7420  -36.6170 C   0  0  0  0  0  0  0  0  0  0  0  0
  -37.0820  -80.7340  -37.7100 C   0  0  0  0  0  0  0  0  0  0  0  0
  -36.4340  -82.0780  -37.9040 C   0  0  0  0  0  0  0  0  0  0  0  0
  -35.9070  -80.2300  -33.8390 C   0  0  0  0  0  0  0  0  0  0  0  0
  -34.9090  -81.0800  -33.1780 C   0  0  0  0  0  0  0  0  0  0  0  0
  -35.4620  -81.7160  -31.9610 C   0  0  0  0  0  0  0  0  0  0  0  0
  -33.6110  -79.1740  -32.4400 C   0  0  0  0  0  0  0  0  0  0  0  0
  -41.8890  -81.1730  -38.3710 C   0  0  0  0  0  0  0  0  0  0  0  0
  -32.2520  -78.5340  -32.1590 C   0  0  0  0  0  0  0  0  0  0  0  0
  -32.3080  -77.9580  -30.7480 C   0  0  0  0  0  0  0  0  0  0  0  0
  -31.1490  -77.0770  -30.5270 C   0  0  0  0  0  0  0  0  0  0  0  0
  -29.9740  -77.4660  -30.0030 C   0  0  0  0  0  0  0  0  0  0  0  0
  -29.8630  -75.3630  -30.4950 C   0  0  0  0  0  0  0  0  0  0  0  0
  -30.5710  -79.5080  -33.5670 C   0  0  0  0  0  0  0  0  0  0  0  0
  -29.6450  -80.7020  -33.7930 C   0  0  0  0  0  0  0  0  0  0  0  0
  -28.6430  -80.3800  -34.8020 C   0  0  0  0  0  0  0  0  0  0  0  0
  -29.0160  -81.0160  -36.0520 C   0  0  0  0  0  0  0  0  0  0  0  0
  -30.2200  -81.7860  -35.8070 C   0  0  0  0  0  0  0  0  0  0  0  0
  -42.0540  -81.3410  -36.9100 C   0  0  0  0  0  0  0  0  0  0  0  0
  -31.2250  -82.6000  -33.7280 C   0  0  0  0  0  0  0  0  0  0  0  0
  -32.2630  -83.4390  -34.4840 C   0  0  0  0  0  0  0  0  0  0  0  0
  -31.8000  -84.8610  -34.6320 C   0  0  0  0  0  0  0  0  0  0  0  0
  -32.9080  -85.8110  -34.9790 C   0  0  0  0  0  0  0  0  0  0  0  0
  -39.3480  -77.2800  -32.4560 C   0  0  0  0  0  0  0  0  0  0  0  0
  -38.8240  -76.0910  -33.1240 C   0  0  0  0  0  0  0  0  0  0  0  0
  -43.3110  -77.9160  -39.6790 C   0  0  0  0  0  0  0  0  0  0  0  0
  -41.6540  -79.7170  -38.7200 C   0  0  0  0  0  0  0  0  0  0  0  0
  -42.8280  -78.8010  -38.4210 C   0  0  0  0  0  0  0  0  0  0  0  0
  -43.2890  -77.1570  -36.7130 C   0  0  0  0  0  0  0  0  0  0  0  0
  -42.6510  -76.3500  -35.6280 C   0  0  0  0  0  0  0  0  0  0  0  0
  -42.1710  -75.0580  -36.1650 C   0  0  0  0  0  0  0  0  0  0  0  0
  -41.4440  -77.3360  -33.7930 C   0  0  0  0  0  0  0  0  0  0  0  0
  -42.4360  -77.9350  -37.3540 N   0  0  0  0  0  0  0  0  0  0  0  0
  -32.6120  -82.8520  -35.7500 N   0  0  0  0  0  0  0  0  0  0  0  0
  -41.6230  -77.1100  -35.0840 N   0  0  0  0  0  0  0  0  0  0  0  0
  -39.4480  -78.5890  -34.4920 N   0  0  0  0  0  0  0  0  0  0  0  0
  -36.6730  -80.7920  -34.7690 N   0  0  0  0  0  0  0  0  0  0  0  0
  -33.6800  -80.3570  -32.8650 N   0  0  0  0  0  0  0  0  0  0  0  0
  -29.1690  -76.4180  -29.9870 N   0  0  0  0  0  0  0  0  0  0  0  0
  -31.0680  -75.7850  -30.8100 N   0  0  0  0  0  0  0  0  0  0  0  0
  -31.2260  -79.5140  -32.4290 N   0  0  0  0  0  0  0  0  0  0  0  0
  -30.4280  -81.7720  -34.3880 N   0  0  0  0  0  0  0  0  0  0  0  0
  -44.4760  -77.0540  -37.0060 O   0  0  0  0  0  0  0  0  0  0  0  0
  -31.2520  -82.6690  -32.5390 O   0  0  0  0  0  0  0  0  0  0  0  0
  -33.5760  -86.3090  -34.0330 O   0  0  0  0  0  0  0  0  0  0  0  0
  -33.1760  -86.0920  -36.1550 O   0  0  0  0  0  0  0  0  0  0  0  0
  -40.0310  -77.0200  -31.2840 O   0  0  0  0  0  0  0  0  0  0  0  0
  -44.2380  -78.3710  -40.4330 O   0  0  0  0  0  0  0  0  0  0  0  0
  -42.6780  -76.8610  -39.8550 O   0  0  0  0  0  0  0  0  0  0  0  0
  -42.2800  -76.9470  -32.9610 O   0  0  0  0  0  0  0  0  0  0  0  0
  -39.0470  -80.5680  -33.5600 O   0  0  0  0  0  0  0  0  0  0  0  0
  -35.7930  -82.5800  -36.9390 O   0  0  0  0  0  0  0  0  0  0  0  0
  -36.5700  -82.6610  -38.9830 O   0  0  0  0  0  0  0  0  0  0  0  0
  -36.0880  -79.1140  -33.4960 O   0  0  0  0  0  0  0  0  0  0  0  0
  -34.6360  -82.6450  -31.3770 O   0  0  0  0  0  0  0  0  0  0  0  0
  -34.6290  -78.5450  -32.3350 O   0  0  0  0  0  0  0  0  0  0  0  0
  -30.7470  -78.6230  -34.3360 O   0  0  0  0  0  0  0  0  0  0  0  0
  1 12  1  0  0  0  0
  2 28  1  0  0  0  0
  2 36  1  0  0  0  0
  2 40  1  0  0  0  0
  3  4  1  0  0  0  0
  3 40  1  0  0  0  0
  3 55  2  0  0  0  0
  4  5  1  0  0  0  0
  4 41  1  0  0  0  0
  5  6  1  0  0  0  0
  6  7  1  0  0  0  0
  7 56  4  0  0  0  0
  7 57  4  0  0  0  0
  8  9  1  0  0  0  0
  8 41  1  0  0  0  0
  8 58  2  0  0  0  0
  9 10  1  0  0  0  0
  9 42  1  0  0  0  0
 10 59  1  0  0  0  0
 11 13  1  0  0  0  0
 11 42  1  0  0  0  0
 11 60  2  0  0  0  0
 12 23  1  0  0  0  0
 12 31  1  0  0  0  0
 13 14  1  0  0  0  0
 13 45  1  0  0  0  0
 14 15  1  0  0  0  0
 15 16  4  0  0  0  0
 15 44  4  0  0  0  0
 16 43  4  0  0  0  0
 17 43  4  0  0  0  0
 17 44  4  0  0  0  0
 18 19  1  0  0  0  0
 18 45  1  0  0  0  0
 18 61  2  0  0  0  0
 19 20  1  0  0  0  0
 19 46  1  0  0  0  0
 20 21  1  0  0  0  0
 21 22  1  0  0  0  0
 22 46  1  0  0  0  0
 24 25  1  0  0  0  0
 24 46  1  0  0  0  0
 24 48  2  0  0  0  0
 25 26  1  0  0  0  0
 25 38  1  0  0  0  0
 26 27  1  0  0  0  0
 27 49  4  0  0  0  0
 27 50  4  0  0  0  0
 28 29  1  0  0  0  0
 28 51  1  0  0  0  0
 30 32  1  0  0  0  0
 30 52  4  0  0  0  0
 30 53  4  0  0  0  0
 31 32  1  0  0  0  0
 32 37  1  0  0  0  0
 33 34  1  0  0  0  0
 33 37  1  0  0  0  0
 33 47  2  0  0  0  0
 34 35  1  0  0  0  0
 34 39  1  0  0  0  0
 36 39  1  0  0  0  0
 36 54  2  0  0  0  0
M  END
$$$$
