complex
  PyMOL3.0          3D                             0

 35 35  0  0  0  0  0  0  0  0999 V2000
  -16.8030   14.9590   38.2350 C   0  0  0  0  0  0  0  0  0  0  0  0
  -20.3020   14.9510   31.4200 C   0  0  0  0  0  0  0  0  0  0  0  0
  -21.4190   13.9530   36.5120 C   0  0  0  0  0  0  0  0  0  0  0  0
  -23.6840   13.0800   37.2590 C   0  0  0  0  0  0  0  0  0  0  0  0
  -24.2450   11.6750   37.2000 C   0  0  0  0  0  0  0  0  0  0  0  0
  -23.9280   11.0450   35.9010 C   0  0  0  0  0  0  0  0  0  0  0  0
  -24.4880    9.6280   35.7140 C   0  0  0  0  0  0  0  0  0  0  0  0
  -24.1170   13.8280   38.5000 C   0  0  0  0  0  0  0  0  0  0  0  0
  -25.9470   15.0430   39.5790 C   0  0  0  0  0  0  0  0  0  0  0  0
  -27.0750   15.8910   39.1410 C   0  0  0  0  0  0  0  0  0  0  0  0
  -26.4580   13.9540   40.5220 C   0  0  0  0  0  0  0  0  0  0  0  0
  -17.6340   14.2340   37.3070 C   0  0  0  0  0  0  0  0  0  0  0  0
  -26.7620   13.2990   42.8420 C   0  0  0  0  0  0  0  0  0  0  0  0
  -28.0180   13.6920   43.5190 C   0  0  0  0  0  0  0  0  0  0  0  0
  -25.5390   13.1250   43.7320 C   0  0  0  0  0  0  0  0  0  0  0  0
  -19.1310   14.4390   37.4600 C   0  0  0  0  0  0  0  0  0  0  0  0
  -19.4890   13.9630   38.8630 C   0  0  0  0  0  0  0  0  0  0  0  0
  -19.9360   13.6220   36.3760 C   0  0  0  0  0  0  0  0  0  0  0  0
  -19.5780   13.2160   34.0130 C   0  0  0  0  0  0  0  0  0  0  0  0
  -18.9190   13.6040   32.6500 C   0  0  0  0  0  0  0  0  0  0  0  0
  -18.4020   15.0460   32.7270 C   0  0  0  0  0  0  0  0  0  0  0  0
  -19.4680   15.8760   32.1980 C   0  0  0  0  0  0  0  0  0  0  0  0
  -19.4420   13.9490   35.0200 N   0  0  0  0  0  0  0  0  0  0  0  0
  -19.9640   13.6590   31.6160 N   0  0  0  0  0  0  0  0  0  0  0  0
  -22.1860   12.9780   37.1000 N   0  0  0  0  0  0  0  0  0  0  0  0
  -24.1610    9.0030   34.6160 N   0  0  0  0  0  0  0  0  0  0  0  0
  -25.3470   14.4210   38.4030 N   0  0  0  0  0  0  0  0  0  0  0  0
  -26.3610   14.2740   41.8100 N   0  0  0  0  0  0  0  0  0  0  0  0
  -20.2310   12.2040   34.0580 O   0  0  0  0  0  0  0  0  0  0  0  0
  -21.9070   14.9740   36.0830 O   0  0  0  0  0  0  0  0  0  0  0  0
  -25.2030    9.1420   36.5660 O   0  0  0  0  0  0  0  0  0  0  0  0
  -23.4670   13.9090   39.4900 O   0  0  0  0  0  0  0  0  0  0  0  0
  -26.8710   12.8950   40.0820 O   0  0  0  0  0  0  0  0  0  0  0  0
  -27.9330   15.0180   43.8770 O   0  0  0  0  0  0  0  0  0  0  0  0
  -24.4580   12.6490   43.0090 O   0  0  0  0  0  0  0  0  0  0  0  0
  1 12  1  0  0  0  0
  2 22  1  0  0  0  0
  2 24  1  0  0  0  0
  3 18  1  0  0  0  0
  3 25  1  0  0  0  0
  3 30  2  0  0  0  0
  4  5  1  0  0  0  0
  4  8  1  0  0  0  0
  4 25  1  0  0  0  0
  5  6  1  0  0  0  0
  6  7  1  0  0  0  0
  7 26  1  0  0  0  0
  7 31  2  0  0  0  0
  8 27  1  0  0  0  0
  8 32  2  0  0  0  0
  9 10  1  0  0  0  0
  9 11  1  0  0  0  0
  9 27  1  0  0  0  0
 11 28  1  0  0  0  0
 11 33  2  0  0  0  0
 12 16  1  0  0  0  0
 13 14  1  0  0  0  0
 13 15  1  0  0  0  0
 13 28  1  0  0  0  0
 14 34  1  0  0  0  0
 15 35  1  0  0  0  0
 16 17  1  0  0  0  0
 16 18  1  0  0  0  0
 18 23  1  0  0  0  0
 19 20  1  0  0  0  0
 19 23  1  0  0  0  0
 19 29  2  0  0  0  0
 20 21  1  0  0  0  0
 20 24  1  0  0  0  0
 21 22  1  0  0  0  0
M  END
$$$$
