complex
  PyMOL3.0          3D                             0

 25 26  0  0  0  0  0  0  0  0999 V2000
  122.6780  132.9520  138.0710 C   0  0  0  0  0  0  0  0  0  0  0  0
  126.4610  131.8790  128.4810 C   0  0  0  0  0  0  0  0  0  0  0  0
  127.8130  131.3310  128.3070 C   0  0  0  0  0  0  0  0  0  0  0  0
  128.9020  132.1860  128.2420 C   0  0  0  0  0  0  0  0  0  0  0  0
  130.1390  131.6690  128.0660 C   0  0  0  0  0  0  0  0  0  0  0  0
  130.3540  130.3270  127.9720 C   0  0  0  0  0  0  0  0  0  0  0  0
  131.6870  129.7910  127.8050 C   0  0  0  0  0  0  0  0  0  0  0  0
  133.2040  128.3740  127.5990 C   0  0  0  0  0  0  0  0  0  0  0  0
  133.9350  127.1480  127.4580 C   0  0  0  0  0  0  0  0  0  0  0  0
  133.1590  126.0220  127.9690 C   0  0  0  0  0  0  0  0  0  0  0  0
  133.3680  125.8210  129.4330 C   0  0  0  0  0  0  0  0  0  0  0  0
  123.7740  132.5130  137.2320 C   0  0  0  0  0  0  0  0  0  0  0  0
  129.2810  129.4850  128.0310 C   0  0  0  0  0  0  0  0  0  0  0  0
  128.0140  129.9540  128.2050 C   0  0  0  0  0  0  0  0  0  0  0  0
  123.3220  132.0770  135.9100 C   0  0  0  0  0  0  0  0  0  0  0  0
  124.4390  131.7190  135.0410 C   0  0  0  0  0  0  0  0  0  0  0  0
  123.9590  131.2090  133.7220 C   0  0  0  0  0  0  0  0  0  0  0  0
  124.8400  131.6270  132.5870 C   0  0  0  0  0  0  0  0  0  0  0  0
  124.0320  131.9650  131.3920 C   0  0  0  0  0  0  0  0  0  0  0  0
  124.8670  132.4770  130.2900 C   0  0  0  0  0  0  0  0  0  0  0  0
  125.8890  131.4960  129.8170 C   0  0  0  0  0  0  0  0  0  0  0  0
  132.8160  130.4900  127.8450 N   0  0  0  0  0  0  0  0  0  0  0  0
  134.4690  125.0570  129.7300 N   0  0  0  0  0  0  0  0  0  0  0  0
  131.8920  128.5000  127.6380 N   0  0  0  0  0  0  0  0  0  0  0  0
  133.7530  129.5990  127.6960 O   0  0  0  0  0  0  0  0  0  0  0  0
  1 12  1  0  0  0  0
  2  3  1  0  0  0  0
  2 21  1  0  0  0  0
  3  4  4  0  0  0  0
  3 14  4  0  0  0  0
  4  5  4  0  0  0  0
  5  6  4  0  0  0  0
  6  7  1  0  0  0  0
  6 13  4  0  0  0  0
  7 22  4  0  0  0  0
  7 24  4  0  0  0  0
  8  9  1  0  0  0  0
  8 24  4  0  0  0  0
  8 25  4  0  0  0  0
  9 10  1  0  0  0  0
 10 11  1  0  0  0  0
 11 23  1  0  0  0  0
 12 15  1  0  0  0  0
 13 14  4  0  0  0  0
 15 16  1  0  0  0  0
 16 17  1  0  0  0  0
 17 18  1  0  0  0  0
 18 19  1  0  0  0  0
 19 20  1  0  0  0  0
 20 21  1  0  0  0  0
 22 25  4  0  0  0  0
M  END
$$$$
