complex
  PyMOL3.0          3D                             0

 17 18  0  0  0  0  0  0  0  0999 V2000
   36.3150  -17.9780  122.4920 C   0  0  0  0  0  0  0  0  0  0  0  0
   34.8530  -18.7990  120.8270 C   0  0  0  0  0  0  0  0  0  0  0  0
   34.3580  -17.5180  120.5400 C   0  0  0  0  0  0  0  0  0  0  0  0
   33.3100  -17.2740  119.5000 C   0  0  0  0  0  0  0  0  0  0  0  0
   31.2640  -17.5920  118.6680 C   0  0  0  0  0  0  0  0  0  0  0  0
   29.9400  -18.2710  118.7250 C   0  0  0  0  0  0  0  0  0  0  0  0
   32.1560  -18.1020  117.5560 C   0  0  0  0  0  0  0  0  0  0  0  0
   33.5800  -17.9140  118.1360 C   0  0  0  0  0  0  0  0  0  0  0  0
   34.9050  -16.4230  121.2740 C   0  0  0  0  0  0  0  0  0  0  0  0
   35.7950  -19.0150  121.7740 N   0  0  0  0  0  0  0  0  0  0  0  0
   35.8540  -16.7100  122.2280 N   0  0  0  0  0  0  0  0  0  0  0  0
   37.1560  -18.1640  123.3440 O   0  0  0  0  0  0  0  0  0  0  0  0
   32.0070  -17.8400  119.8520 O   0  0  0  0  0  0  0  0  0  0  0  0
   29.4350  -18.3060  120.0250 O   0  0  0  0  0  0  0  0  0  0  0  0
   31.9400  -17.2910  116.4030 O   0  0  0  0  0  0  0  0  0  0  0  0
   34.3910  -17.0420  117.3580 O   0  0  0  0  0  0  0  0  0  0  0  0
   34.5140  -15.2820  121.0890 O   0  0  0  0  0  0  0  0  0  0  0  0
  1 10  4  0  0  0  0
  1 11  4  0  0  0  0
  1 12  2  0  0  0  0
  2  3  4  0  0  0  0
  2 10  4  0  0  0  0
  3  4  1  0  0  0  0
  3  9  4  0  0  0  0
  4  8  1  0  0  0  0
  4 13  1  0  0  0  0
  5  6  1  0  0  0  0
  5  7  1  0  0  0  0
  5 13  1  0  0  0  0
  6 14  1  0  0  0  0
  7  8  1  0  0  0  0
  7 15  1  0  0  0  0
  8 16  1  0  0  0  0
  9 11  4  0  0  0  0
  9 17  2  0  0  0  0
M  END
$$$$
