complex
  PyMOL3.0          3D                             0

 64 71  0  0  0  0  0  0  0  0999 V2000
   11.1100   20.6390   16.9930 P   0  0  0  0  0  0  0  0  0  0  0  0
   12.5090   21.5090   14.7680 P   0  0  0  0  0  0  0  0  0  0  0  0
   -0.1170   25.6980   22.2530 C   0  0  0  0  0  0  0  0  0  0  0  0
    4.9980   23.6520   11.6990 C   0  0  0  0  0  0  0  0  0  0  0  0
    5.3700   22.5290    9.6230 C   0  0  0  0  0  0  0  0  0  0  0  0
    6.0440   21.4740   11.7560 C   0  0  0  0  0  0  0  0  0  0  0  0
    6.5150   20.3680   11.0910 C   0  0  0  0  0  0  0  0  0  0  0  0
    7.0480   19.3440   11.7800 C   0  0  0  0  0  0  0  0  0  0  0  0
    7.1650   19.2910   13.1230 C   0  0  0  0  0  0  0  0  0  0  0  0
    7.6660   18.1880   13.7840 C   0  0  0  0  0  0  0  0  0  0  0  0
    8.0840   16.9860   13.2020 C   0  0  0  0  0  0  0  0  0  0  0  0
    8.6100   16.1090   16.6490 C   0  0  0  0  0  0  0  0  0  0  0  0
   10.4510   17.1220   17.5680 C   0  0  0  0  0  0  0  0  0  0  0  0
    1.9690   24.9450   21.5210 C   0  0  0  0  0  0  0  0  0  0  0  0
   11.0210   18.1590   16.6280 C   0  0  0  0  0  0  0  0  0  0  0  0
   10.6380   22.7840   13.6590 C   0  0  0  0  0  0  0  0  0  0  0  0
   10.4790   22.9720   12.1620 C   0  0  0  0  0  0  0  0  0  0  0  0
   10.4460   21.5670   10.3720 C   0  0  0  0  0  0  0  0  0  0  0  0
   10.8590   19.3780   11.5670 C   0  0  0  0  0  0  0  0  0  0  0  0
    9.9210   17.9550   10.3070 C   0  0  0  0  0  0  0  0  0  0  0  0
    9.3770   16.8350    9.6440 C   0  0  0  0  0  0  0  0  0  0  0  0
    8.5810   18.2500    8.0440 C   0  0  0  0  0  0  0  0  0  0  0  0
    9.7370   19.1940    9.7250 C   0  0  0  0  0  0  0  0  0  0  0  0
    9.1420   22.2590   10.4120 C   0  0  0  0  0  0  0  0  0  0  0  0
    2.6740   24.1280   20.4730 C   0  0  0  0  0  0  0  0  0  0  0  0
    9.0560   22.7260   11.7960 C   0  0  0  0  0  0  0  0  0  0  0  0
   10.9020   15.7470   17.2030 C   0  0  0  0  0  0  0  0  0  0  0  0
    9.6530   15.1250   16.5900 C   0  0  0  0  0  0  0  0  0  0  0  0
    7.8210   18.0010   15.1310 C   0  0  0  0  0  0  0  0  0  0  0  0
    6.8070   20.2820   13.7160 C   0  0  0  0  0  0  0  0  0  0  0  0
    6.2280   21.4080   13.0280 C   0  0  0  0  0  0  0  0  0  0  0  0
    6.2160   24.2090   16.9410 C   0  0  0  0  0  0  0  0  0  0  0  0
    5.4050   24.9910   18.0190 C   0  0  0  0  0  0  0  0  0  0  0  0
    4.0580   24.2470   18.6350 C   0  0  0  0  0  0  0  0  0  0  0  0
    3.1280   23.8830   17.4430 C   0  0  0  0  0  0  0  0  0  0  0  0
    3.7690   23.1810   16.3490 C   0  0  0  0  0  0  0  0  0  0  0  0
    5.1220   23.8450   15.9080 C   0  0  0  0  0  0  0  0  0  0  0  0
    5.6740   22.6980   13.8500 C   0  0  0  0  0  0  0  0  0  0  0  0
    5.1200   23.7110   13.1060 C   0  0  0  0  0  0  0  0  0  0  0  0
    5.8440   22.8280   15.1980 N   0  0  0  0  0  0  0  0  0  0  0  0
    5.4720   22.5410   11.0670 N   0  0  0  0  0  0  0  0  0  0  0  0
    8.4700   16.1370   14.1500 N   0  0  0  0  0  0  0  0  0  0  0  0
    8.3270   16.7230   15.3320 N   0  0  0  0  0  0  0  0  0  0  0  0
   10.3390   20.0760   10.5240 N   0  0  0  0  0  0  0  0  0  0  0  0
   10.6180   18.0870   11.4270 N   0  0  0  0  0  0  0  0  0  0  0  0
    9.5040   15.5870   10.1190 N   0  0  0  0  0  0  0  0  0  0  0  0
    8.7340   17.0440    8.5230 N   0  0  0  0  0  0  0  0  0  0  0  0
    9.0540   19.3200    8.6000 N   0  0  0  0  0  0  0  0  0  0  0  0
    0.6050   24.8850   21.3240 O   0  0  0  0  0  0  0  0  0  0  0  0
   12.7160   22.8790   15.2610 O   0  5  0  0  0  0  0  0  0  0  0  0
   11.1670   21.5290   13.9450 O   0  0  0  0  0  0  0  0  0  0  0  0
   11.2450   22.0620   11.4100 O   0  0  0  0  0  0  0  0  0  0  0  0
    9.1080   23.4090    9.5480 O   0  0  0  0  0  0  0  0  0  0  0  0
    8.2710   23.8930   11.9470 O   0  0  0  0  0  0  0  0  0  0  0  0
   11.3250   15.0890   18.3580 O   0  0  0  0  0  0  0  0  0  0  0  0
    9.1790   14.0580   17.4530 O   0  0  0  0  0  0  0  0  0  0  0  0
    3.3380   24.9410   19.5470 O   0  0  0  0  0  0  0  0  0  0  0  0
    4.4980   24.6070   11.0510 O   0  0  0  0  0  0  0  0  0  0  0  0
    9.0430   17.1640   17.5120 O   0  0  0  0  0  0  0  0  0  0  0  0
   10.2890   19.3320   16.7470 O   0  0  0  0  0  0  0  0  0  0  0  0
   10.2170   21.7670   16.7430 O   0  5  0  0  0  0  0  0  0  0  0  0
   11.6970   20.5750   18.3430 O   0  0  0  0  0  0  0  0  0  0  0  0
   12.2780   20.5130   15.9580 O   0  0  0  0  0  0  0  0  0  0  0  0
   13.5930   20.9820   13.9170 O   0  0  0  0  0  0  0  0  0  0  0  0
  1 60  1  0  0  0  0
  1 61  1  0  0  0  0
  1 62  2  0  0  0  0
  1 63  1  0  0  0  0
  2 50  1  0  0  0  0
  2 51  1  0  0  0  0
  2 63  1  0  0  0  0
  2 64  2  0  0  0  0
  3 49  1  0  0  0  0
  4 39  4  0  0  0  0
  4 41  4  0  0  0  0
  4 58  2  0  0  0  0
  5 41  1  0  0  0  0
  6  7  4  0  0  0  0
  6 31  4  0  0  0  0
  6 41  4  0  0  0  0
  7  8  4  0  0  0  0
  8  9  4  0  0  0  0
  9 10  1  0  0  0  0
  9 30  4  0  0  0  0
 10 11  4  0  0  0  0
 10 29  4  0  0  0  0
 11 42  4  0  0  0  0
 12 28  1  0  0  0  0
 12 43  1  0  0  0  0
 12 59  1  0  0  0  0
 13 15  1  0  0  0  0
 13 27  1  0  0  0  0
 13 59  1  0  0  0  0
 14 25  1  0  0  0  0
 14 49  1  0  0  0  0
 15 60  1  0  0  0  0
 16 17  1  0  0  0  0
 16 51  1  0  0  0  0
 17 26  1  0  0  0  0
 17 52  1  0  0  0  0
 18 24  1  0  0  0  0
 18 44  1  0  0  0  0
 18 52  1  0  0  0  0
 19 44  4  0  0  0  0
 19 45  4  0  0  0  0
 20 21  4  0  0  0  0
 20 23  4  0  0  0  0
 20 45  4  0  0  0  0
 21 46  1  0  0  0  0
 21 47  4  0  0  0  0
 22 47  4  0  0  0  0
 22 48  4  0  0  0  0
 23 44  4  0  0  0  0
 23 48  4  0  0  0  0
 24 26  1  0  0  0  0
 24 53  1  0  0  0  0
 25 57  1  0  0  0  0
 26 54  1  0  0  0  0
 27 28  1  0  0  0  0
 27 55  1  0  0  0  0
 28 56  1  0  0  0  0
 29 43  4  0  0  0  0
 30 31  4  0  0  0  0
 31 38  4  0  0  0  0
 32 33  1  0  0  0  0
 32 37  1  0  0  0  0
 33 34  1  0  0  0  0
 34 35  1  0  0  0  0
 34 57  1  0  0  0  0
 35 36  1  0  0  0  0
 36 37  1  0  0  0  0
 37 40  1  0  0  0  0
 38 39  4  0  0  0  0
 38 40  1  0  0  0  0
 42 43  4  0  0  0  0
M  END
$$$$
