complex
  PyMOL3.0          3D                             0

 28 31  0  0  0  0  0  0  0  0999 V2000
  126.8930  164.1100  111.5590 C   0  0  0  0  0  0  0  0  0  0  0  0
  134.2020  163.5620  116.5840 C   0  0  0  0  0  0  0  0  0  0  0  0
  134.7730  164.1940  115.4620 C   0  0  0  0  0  0  0  0  0  0  0  0
  134.3750  163.9000  114.2230 C   0  0  0  0  0  0  0  0  0  0  0  0
  133.3260  162.9340  113.9370 C   0  0  0  0  0  0  0  0  0  0  0  0
  133.9400  161.8480  113.0920 C   0  0  0  0  0  0  0  0  0  0  0  0
  132.1660  163.6530  113.2440 C   0  0  0  0  0  0  0  0  0  0  0  0
  132.6220  164.2990  111.9170 C   0  0  0  0  0  0  0  0  0  0  0  0
  131.5170  164.8870  111.1040 C   0  0  0  0  0  0  0  0  0  0  0  0
  130.3940  163.8880  110.8780 C   0  0  0  0  0  0  0  0  0  0  0  0
  130.8620  162.7990  109.9530 C   0  0  0  0  0  0  0  0  0  0  0  0
  128.0210  163.4780  110.8220 C   0  0  0  0  0  0  0  0  0  0  0  0
  129.0980  164.4920  110.3900 C   0  0  0  0  0  0  0  0  0  0  0  0
  129.0760  164.6460  108.9430 C   0  0  0  0  0  0  0  0  0  0  0  0
  129.4090  165.8800  108.3410 C   0  0  0  0  0  0  0  0  0  0  0  0
  128.7290  162.5950  111.8330 C   0  0  0  0  0  0  0  0  0  0  0  0
  129.9640  163.3720  112.2230 C   0  0  0  0  0  0  0  0  0  0  0  0
  131.0460  162.6800  112.9760 C   0  0  0  0  0  0  0  0  0  0  0  0
  130.5050  162.1610  114.2740 C   0  0  0  0  0  0  0  0  0  0  0  0
  131.5870  161.4030  115.0200 C   0  0  0  0  0  0  0  0  0  0  0  0
  132.7680  162.3070  115.1860 C   0  0  0  0  0  0  0  0  0  0  0  0
  133.1410  162.6500  116.3680 C   0  0  0  0  0  0  0  0  0  0  0  0
  134.5840  163.8670  117.7390 O   0  0  0  0  0  0  0  0  0  0  0  0
  133.3560  163.5120  111.1240 O   0  0  0  0  0  0  0  0  0  0  0  0
  128.8840  165.7120  110.9450 O   0  0  0  0  0  0  0  0  0  0  0  0
  128.8590  163.6660  108.1660 O   0  0  0  0  0  0  0  0  0  0  0  0
  130.0040  165.7330  107.1310 O   0  0  0  0  0  0  0  0  0  0  0  0
  131.7110  164.6380  113.9840 F   0  0  0  0  0  0  0  0  0  0  0  0
  1 12  1  0  0  0  0
  2  3  1  0  0  0  0
  2 22  1  0  0  0  0
  2 23  2  0  0  0  0
  3  4  1  0  0  0  0
  4  5  1  0  0  0  0
  5  6  1  0  0  0  0
  5  7  1  0  0  0  0
  5 21  1  0  0  0  0
  7  8  1  0  0  0  0
  7 18  1  0  0  0  0
  7 28  1  0  0  0  0
  8  9  1  0  0  0  0
  8 24  1  0  0  0  0
  9 10  1  0  0  0  0
 10 11  1  0  0  0  0
 10 13  1  0  0  0  0
 10 17  1  0  0  0  0
 12 13  1  0  0  0  0
 12 16  1  0  0  0  0
 13 14  1  0  0  0  0
 13 25  1  0  0  0  0
 14 15  1  0  0  0  0
 14 26  2  0  0  0  0
 15 27  1  0  0  0  0
 16 17  1  0  0  0  0
 17 18  1  0  0  0  0
 18 19  1  0  0  0  0
 19 20  1  0  0  0  0
 20 21  1  0  0  0  0
 21 22  1  0  0  0  0
M  END
$$$$
