complex
  PyMOL3.0          3D                             0

 21 24  0  0  0  0  0  0  0  0999 V2000
   31.9420   31.5820   65.7090 C   0  0  0  0  0  0  0  0  0  0  0  0
   34.8850   38.8670   61.3880 C   0  0  0  0  0  0  0  0  0  0  0  0
   34.8020   39.5260   60.0810 C   0  0  0  0  0  0  0  0  0  0  0  0
   35.3690   40.8880   59.9060 C   0  0  0  0  0  0  0  0  0  0  0  0
   33.9180   40.6970   59.9210 C   0  0  0  0  0  0  0  0  0  0  0  0
   35.6240   39.3170   62.4520 C   0  0  0  0  0  0  0  0  0  0  0  0
   35.6240   38.6160   63.6480 C   0  0  0  0  0  0  0  0  0  0  0  0
   34.9010   37.4400   63.8140 C   0  0  0  0  0  0  0  0  0  0  0  0
   34.1610   37.0090   62.7470 C   0  0  0  0  0  0  0  0  0  0  0  0
   31.7020   32.7180   63.6770 C   0  0  0  0  0  0  0  0  0  0  0  0
   32.1040   33.8630   62.8630 C   0  0  0  0  0  0  0  0  0  0  0  0
   32.9630   34.8120   63.3890 C   0  0  0  0  0  0  0  0  0  0  0  0
   33.3440   35.8820   62.5890 C   0  0  0  0  0  0  0  0  0  0  0  0
   32.8430   35.9860   61.2650 C   0  0  0  0  0  0  0  0  0  0  0  0
   31.6310   34.0170   61.5400 C   0  0  0  0  0  0  0  0  0  0  0  0
   30.7220   33.0660   60.8740 C   0  0  0  0  0  0  0  0  0  0  0  0
   34.1430   37.7110   61.5400 C   0  0  0  0  0  0  0  0  0  0  0  0
   32.0120   35.0910   60.7580 N   0  0  0  0  0  0  0  0  0  0  0  0
   33.3460   37.0730   60.6470 N   0  0  0  0  0  0  0  0  0  0  0  0
   32.0860   32.7540   64.9600 O   0  0  0  0  0  0  0  0  0  0  0  0
   31.0870   31.7870   63.2290 O   0  0  0  0  0  0  0  0  0  0  0  0
  1 20  1  0  0  0  0
  2  3  1  0  0  0  0
  2  6  4  0  0  0  0
  2 17  4  0  0  0  0
  3  4  1  0  0  0  0
  3  5  1  0  0  0  0
  4  5  1  0  0  0  0
  6  7  4  0  0  0  0
  7  8  4  0  0  0  0
  8  9  4  0  0  0  0
  9 13  4  0  0  0  0
  9 17  4  0  0  0  0
 10 11  1  0  0  0  0
 10 20  1  0  0  0  0
 10 21  2  0  0  0  0
 11 12  4  0  0  0  0
 11 15  4  0  0  0  0
 12 13  4  0  0  0  0
 13 14  4  0  0  0  0
 14 18  4  0  0  0  0
 14 19  4  0  0  0  0
 15 16  1  0  0  0  0
 15 18  4  0  0  0  0
 17 19  4  0  0  0  0
M  END
$$$$
