complex
  PyMOL3.0          3D                             0

 43 46  0  0  0  0  0  0  0  0999 V2000
  169.4690  182.0340  165.5150 C   0  0  0  0  0  0  0  0  0  0  0  0
  176.1750  173.9610  166.0030 C   0  0  0  0  0  0  0  0  0  0  0  0
  175.8320  172.6890  166.5630 C   0  0  0  0  0  0  0  0  0  0  0  0
  174.7800  171.0670  167.5680 C   0  0  0  0  0  0  0  0  0  0  0  0
  173.7880  170.2910  168.3160 C   0  0  0  0  0  0  0  0  0  0  0  0
  172.5690  170.4460  168.6650 C   0  0  0  0  0  0  0  0  0  0  0  0
  170.5030  171.2270  168.7220 C   0  0  0  0  0  0  0  0  0  0  0  0
  170.4950  170.0140  169.4330 C   0  0  0  0  0  0  0  0  0  0  0  0
  169.3390  169.4760  169.9740 C   0  0  0  0  0  0  0  0  0  0  0  0
  171.7760  169.5390  169.4210 C   0  0  0  0  0  0  0  0  0  0  0  0
  172.2520  168.3450  170.0560 C   0  0  0  0  0  0  0  0  0  0  0  0
  170.1470  181.2760  166.4330 C   0  0  0  0  0  0  0  0  0  0  0  0
  171.7690  167.9160  171.2950 C   0  0  0  0  0  0  0  0  0  0  0  0
  176.0020  170.5460  167.1120 C   0  0  0  0  0  0  0  0  0  0  0  0
  176.5090  169.1380  167.2590 C   0  0  0  0  0  0  0  0  0  0  0  0
  176.6500  171.5830  166.4680 C   0  0  0  0  0  0  0  0  0  0  0  0
  177.9930  171.4660  165.8200 C   0  0  0  0  0  0  0  0  0  0  0  0
  177.8990  171.1620  164.3700 C   0  0  0  0  0  0  0  0  0  0  0  0
  179.2200  171.0120  163.7500 C   0  0  0  0  0  0  0  0  0  0  0  0
  175.8200  176.3920  165.5180 C   0  0  0  0  0  0  0  0  0  0  0  0
  177.2090  176.6270  164.9510 C   0  0  0  0  0  0  0  0  0  0  0  0
  177.3610  176.0800  163.5170 C   0  0  0  0  0  0  0  0  0  0  0  0
  170.8290  180.0700  166.0960 C   0  0  0  0  0  0  0  0  0  0  0  0
  176.7350  176.9800  162.4970 C   0  0  0  0  0  0  0  0  0  0  0  0
  174.7810  177.2690  165.7070 C   0  0  0  0  0  0  0  0  0  0  0  0
  174.8570  178.6960  165.3100 C   0  0  0  0  0  0  0  0  0  0  0  0
  171.1300  179.6000  164.7760 C   0  0  0  0  0  0  0  0  0  0  0  0
  171.2420  179.1360  166.9430 C   0  0  0  0  0  0  0  0  0  0  0  0
  171.1300  179.1670  168.3990 C   0  0  0  0  0  0  0  0  0  0  0  0
  171.8210  178.0900  166.1720 C   0  0  0  0  0  0  0  0  0  0  0  0
  172.3850  176.9670  166.7020 C   0  0  0  0  0  0  0  0  0  0  0  0
  173.7300  176.5290  166.3060 C   0  0  0  0  0  0  0  0  0  0  0  0
  175.3610  175.1600  166.0040 C   0  0  0  0  0  0  0  0  0  0  0  0
  174.1040  175.2680  166.4510 N   0  0  0  0  0  0  0  0  0  0  0  0
  174.7050  172.3980  167.2260 N   0  0  0  0  0  0  0  0  0  0  0  0
  171.6950  171.4800  168.2920 N   0  0  0  0  0  0  0  0  0  0  0  0
  171.7190  178.4170  164.8500 N   0  0  0  0  0  0  0  0  0  0  0  0
  169.4790  171.9530  168.5790 O   0  0  0  0  0  0  0  0  0  0  0  0
  180.0580  171.8970  163.9000 O   0  0  0  0  0  0  0  0  0  0  0  0
  179.4700  170.0000  163.0850 O   0  0  0  0  0  0  0  0  0  0  0  0
  175.8950  176.5440  161.7060 O   0  0  0  0  0  0  0  0  0  0  0  0
  177.0600  178.1840  162.4560 O   0  0  0  0  0  0  0  0  0  0  0  0
  170.8950  180.1560  163.7170 O   0  0  0  0  0  0  0  0  0  0  0  0
  1 12  1  0  0  0  0
  2  3  1  0  0  0  0
  2 33  1  0  0  0  0
  3 16  4  0  0  0  0
  3 35  4  0  0  0  0
  4  5  1  0  0  0  0
  4 14  4  0  0  0  0
  4 35  4  0  0  0  0
  5  6  1  0  0  0  0
  6 10  4  0  0  0  0
  6 36  4  0  0  0  0
  7  8  4  0  0  0  0
  7 36  4  0  0  0  0
  7 38  2  0  0  0  0
  8  9  1  0  0  0  0
  8 10  4  0  0  0  0
 10 11  1  0  0  0  0
 11 13  1  0  0  0  0
 12 23  1  0  0  0  0
 14 15  1  0  0  0  0
 14 16  4  0  0  0  0
 16 17  1  0  0  0  0
 17 18  1  0  0  0  0
 18 19  1  0  0  0  0
 19 39  4  0  0  0  0
 19 40  4  0  0  0  0
 20 21  1  0  0  0  0
 20 25  4  0  0  0  0
 20 33  4  0  0  0  0
 21 22  1  0  0  0  0
 22 24  1  0  0  0  0
 23 27  4  0  0  0  0
 23 28  4  0  0  0  0
 24 41  4  0  0  0  0
 24 42  4  0  0  0  0
 25 26  1  0  0  0  0
 25 32  4  0  0  0  0
 27 37  4  0  0  0  0
 27 43  2  0  0  0  0
 28 29  1  0  0  0  0
 28 30  4  0  0  0  0
 30 31  1  0  0  0  0
 30 37  4  0  0  0  0
 31 32  1  0  0  0  0
 32 34  4  0  0  0  0
 33 34  4  0  0  0  0
M  END
$$$$
