complex
  PyMOL3.0          3D                             0

 46 46  0  0  0  0  0  0  0  0999 V2000
   35.0390   17.0780  -29.8110 P   0  0  0  0  0  0  0  0  0  0  0  0
   32.1790   30.1100  -29.8740 C   0  0  0  0  0  0  0  0  0  0  0  0
   34.2010   20.4490  -29.4560 C   0  0  0  0  0  0  0  0  0  0  0  0
   34.8330   19.4180  -28.7650 C   0  0  0  0  0  0  0  0  0  0  0  0
   35.9320   19.6990  -27.9400 C   0  0  0  0  0  0  0  0  0  0  0  0
   36.4200   21.0360  -27.8660 C   0  0  0  0  0  0  0  0  0  0  0  0
   39.2550   22.5470  -30.4520 C   0  0  0  0  0  0  0  0  0  0  0  0
   40.5520   21.8230  -30.1510 C   0  0  0  0  0  0  0  0  0  0  0  0
   41.7020   22.6440  -30.6980 C   0  0  0  0  0  0  0  0  0  0  0  0
   42.1810   23.7310  -29.7730 C   0  0  0  0  0  0  0  0  0  0  0  0
   39.9250   19.4490  -30.1910 C   0  0  0  0  0  0  0  0  0  0  0  0
   39.8190   18.1300  -30.9490 C   0  0  0  0  0  0  0  0  0  0  0  0
   34.2440   28.3450  -30.0560 C   0  0  0  0  0  0  0  0  0  0  0  0
   38.8080   18.3390  -32.0190 C   0  0  0  0  0  0  0  0  0  0  0  0
   36.8460   28.1610  -29.0690 C   0  0  0  0  0  0  0  0  0  0  0  0
   37.8440   30.1430  -28.0160 C   0  0  0  0  0  0  0  0  0  0  0  0
   37.2940   31.5440  -27.9420 C   0  0  0  0  0  0  0  0  0  0  0  0
   39.3900   30.1450  -28.0270 C   0  0  0  0  0  0  0  0  0  0  0  0
   39.9250   29.4610  -29.2210 C   0  0  0  0  0  0  0  0  0  0  0  0
   35.3040   27.9110  -31.0150 C   0  0  0  0  0  0  0  0  0  0  0  0
   36.5760   27.4300  -30.3700 C   0  0  0  0  0  0  0  0  0  0  0  0
   37.5270   25.2280  -29.8260 C   0  0  0  0  0  0  0  0  0  0  0  0
   37.3250   23.7170  -29.6200 C   0  0  0  0  0  0  0  0  0  0  0  0
   36.2850   23.5080  -28.5350 C   0  0  0  0  0  0  0  0  0  0  0  0
   35.7940   22.0810  -28.5870 C   0  0  0  0  0  0  0  0  0  0  0  0
   34.6860   21.7610  -29.3860 C   0  0  0  0  0  0  0  0  0  0  0  0
   36.4890   25.9690  -30.2230 N   0  0  0  0  0  0  0  0  0  0  0  0
   38.5380   22.9770  -29.4560 N   0  0  0  0  0  0  0  0  0  0  0  0
   40.5080   20.4500  -30.7480 N   0  0  0  0  0  0  0  0  0  0  0  0
   39.4990   17.0440  -30.0600 N   0  0  0  0  0  0  0  0  0  0  0  0
   37.3460   29.4830  -29.1750 N   0  0  0  0  0  0  0  0  0  0  0  0
   40.1930   28.1520  -29.0990 N   0  0  0  0  0  0  0  0  0  0  0  0
   38.5930   25.7340  -29.5610 O   0  0  0  0  0  0  0  0  0  0  0  0
   38.4790   17.1620  -32.6330 O   0  0  0  0  0  0  0  0  0  0  0  0
   36.6860   27.6130  -28.0280 O   0  0  0  0  0  0  0  0  0  0  0  0
   37.5130   32.2640  -29.0690 O   0  0  0  0  0  0  0  0  0  0  0  0
   40.1120   30.0780  -30.2590 O   0  0  0  0  0  0  0  0  0  0  0  0
   34.3500   18.1230  -28.8630 O   0  0  0  0  0  0  0  0  0  0  0  0
   36.0990   16.4230  -28.9730 O   0  0  0  0  0  0  0  0  0  0  0  0
   35.6490   17.8400  -30.9440 O   0  5  0  0  0  0  0  0  0  0  0  0
   33.9580   16.1750  -30.2860 O   0  0  0  0  0  0  0  0  0  0  0  0
   38.9100   22.7300  -31.5780 O   0  0  0  0  0  0  0  0  0  0  0  0
   42.8540   24.6580  -30.2600 O   0  0  0  0  0  0  0  0  0  0  0  0
   41.9200   23.6510  -28.5760 O   0  0  0  0  0  0  0  0  0  0  0  0
   39.4470   19.5030  -29.0880 O   0  0  0  0  0  0  0  0  0  0  0  0
   32.8160   28.8890  -30.9160 S   0  0  0  0  0  0  0  0  0  0  0  0
  1 38  1  0  0  0  0
  1 39  1  0  0  0  0
  1 40  1  0  0  0  0
  1 41  2  0  0  0  0
  2 46  1  0  0  0  0
  3  4  4  0  0  0  0
  3 26  4  0  0  0  0
  4  5  4  0  0  0  0
  4 38  1  0  0  0  0
  5  6  4  0  0  0  0
  6 25  4  0  0  0  0
  7  8  1  0  0  0  0
  7 28  1  0  0  0  0
  7 42  2  0  0  0  0
  8  9  1  0  0  0  0
  8 29  1  0  0  0  0
  9 10  1  0  0  0  0
 10 43  4  0  0  0  0
 10 44  4  0  0  0  0
 11 12  1  0  0  0  0
 11 29  1  0  0  0  0
 11 45  2  0  0  0  0
 12 14  1  0  0  0  0
 12 30  1  0  0  0  0
 13 20  1  0  0  0  0
 13 46  1  0  0  0  0
 14 34  1  0  0  0  0
 15 21  1  0  0  0  0
 15 31  1  0  0  0  0
 15 35  2  0  0  0  0
 16 17  1  0  0  0  0
 16 18  1  0  0  0  0
 16 31  1  0  0  0  0
 17 36  1  0  0  0  0
 18 19  1  0  0  0  0
 19 32  1  0  0  0  0
 19 37  2  0  0  0  0
 20 21  1  0  0  0  0
 21 27  1  0  0  0  0
 22 23  1  0  0  0  0
 22 27  1  0  0  0  0
 22 33  2  0  0  0  0
 23 24  1  0  0  0  0
 23 28  1  0  0  0  0
 24 25  1  0  0  0  0
 25 26  4  0  0  0  0
M  END
$$$$
