complex
  PyMOL3.0          3D                             0

125138  0  0  0  0  0  0  0  0999 V2000
   -3.6330   32.6000  -28.4060 P   0  0  0  0  0  0  0  0  0  0  0  0
    2.8950   34.8680  -28.0490 P   0  0  0  0  0  0  0  0  0  0  0  0
   -7.3200   35.8110  -33.6210 P   0  0  0  0  0  0  0  0  0  0  0  0
   -6.5820   37.3950  -39.5550 P   0  0  0  0  0  0  0  0  0  0  0  0
   -6.7020   37.4060  -45.4650 P   0  0  0  0  0  0  0  0  0  0  0  0
  -11.7230   34.1410  -48.8960 P   0  0  0  0  0  0  0  0  0  0  0  0
  -10.0770   28.5000  -29.1660 C   0  0  0  0  0  0  0  0  0  0  0  0
   -0.1920   33.9100  -31.4690 C   0  0  0  0  0  0  0  0  0  0  0  0
    0.8000   31.6750  -31.6280 C   0  0  0  0  0  0  0  0  0  0  0  0
    1.4380   30.6720  -32.2570 C   0  0  0  0  0  0  0  0  0  0  0  0
    1.8700   30.8650  -33.5900 C   0  0  0  0  0  0  0  0  0  0  0  0
    0.9850   33.0640  -33.5630 C   0  0  0  0  0  0  0  0  0  0  0  0
   -0.2620   34.3230  -29.1860 C   0  0  0  0  0  0  0  0  0  0  0  0
    0.5060   33.9380  -27.9690 C   0  0  0  0  0  0  0  0  0  0  0  0
   -7.1590   34.2560  -31.6150 C   0  0  0  0  0  0  0  0  0  0  0  0
   -5.5250   36.7620  -35.2920 C   0  0  0  0  0  0  0  0  0  0  0  0
   -4.6000   36.3530  -36.3590 C   0  0  0  0  0  0  0  0  0  0  0  0
  -11.8700   29.8500  -28.7810 C   0  0  0  0  0  0  0  0  0  0  0  0
   -3.7930   34.3380  -37.1250 C   0  0  0  0  0  0  0  0  0  0  0  0
   -5.4890   32.8170  -36.1200 C   0  0  0  0  0  0  0  0  0  0  0  0
   -4.9050   30.8930  -36.7700 C   0  0  0  0  0  0  0  0  0  0  0  0
   -4.7140   29.5310  -37.1000 C   0  0  0  0  0  0  0  0  0  0  0  0
   -2.8430   30.1130  -38.2950 C   0  0  0  0  0  0  0  0  0  0  0  0
   -4.0210   31.8200  -37.2820 C   0  0  0  0  0  0  0  0  0  0  0  0
   -4.4530   35.0650  -38.2960 C   0  0  0  0  0  0  0  0  0  0  0  0
   -5.3260   36.0480  -37.6800 C   0  0  0  0  0  0  0  0  0  0  0  0
   -4.9960   37.3000  -41.5350 C   0  0  0  0  0  0  0  0  0  0  0  0
   -4.3980   36.3470  -42.4680 C   0  0  0  0  0  0  0  0  0  0  0  0
  -11.1930   30.9070  -29.1970 C   0  0  0  0  0  0  0  0  0  0  0  0
   -4.2210   34.0870  -42.6840 C   0  0  0  0  0  0  0  0  0  0  0  0
   -5.9840   33.3050  -41.1920 C   0  0  0  0  0  0  0  0  0  0  0  0
   -6.6900   32.3140  -40.6120 C   0  0  0  0  0  0  0  0  0  0  0  0
   -6.3850   30.9870  -41.1120 C   0  0  0  0  0  0  0  0  0  0  0  0
   -4.7080   31.6900  -42.5560 C   0  0  0  0  0  0  0  0  0  0  0  0
   -5.0510   34.6180  -44.0370 C   0  0  0  0  0  0  0  0  0  0  0  0
   -5.4490   35.9240  -43.6350 C   0  0  0  0  0  0  0  0  0  0  0  0
   -7.8360   35.2680  -46.4340 C   0  0  0  0  0  0  0  0  0  0  0  0
   -9.0710   34.4330  -46.3010 C   0  0  0  0  0  0  0  0  0  0  0  0
  -10.7320   34.7040  -44.7820 C   0  0  0  0  0  0  0  0  0  0  0  0
  -10.5490   32.7650  -29.8560 C   0  0  0  0  0  0  0  0  0  0  0  0
  -10.1990   36.3330  -43.0760 C   0  0  0  0  0  0  0  0  0  0  0  0
  -10.3980   36.9130  -41.8600 C   0  0  0  0  0  0  0  0  0  0  0  0
  -11.4400   36.4450  -41.0460 C   0  0  0  0  0  0  0  0  0  0  0  0
  -12.0140   34.8540  -42.6820 C   0  0  0  0  0  0  0  0  0  0  0  0
  -10.9610   35.7220  -45.8770 C   0  0  0  0  0  0  0  0  0  0  0  0
  -10.2450   35.0590  -46.9660 C   0  0  0  0  0  0  0  0  0  0  0  0
  -13.5410   36.1600  -49.2970 C   0  0  0  0  0  0  0  0  0  0  0  0
  -13.6790   37.3620  -50.1740 C   0  0  0  0  0  0  0  0  0  0  0  0
  -11.9440   38.5220  -51.1240 C   0  0  0  0  0  0  0  0  0  0  0  0
   -9.7210   37.9340  -50.4150 C   0  0  0  0  0  0  0  0  0  0  0  0
   -8.3400   32.3390  -31.1380 C   0  0  0  0  0  0  0  0  0  0  0  0
   -8.3730   38.1320  -50.3090 C   0  0  0  0  0  0  0  0  0  0  0  0
   -7.8270   39.2530  -50.8810 C   0  0  0  0  0  0  0  0  0  0  0  0
   -9.9960   39.9590  -51.5770 C   0  0  0  0  0  0  0  0  0  0  0  0
  -12.1660   37.2690  -51.9320 C   0  0  0  0  0  0  0  0  0  0  0  0
  -13.6070   37.0210  -51.6360 C   0  0  0  0  0  0  0  0  0  0  0  0
   -8.7530   34.0040  -31.5630 C   0  0  0  0  0  0  0  0  0  0  0  0
   -9.9220   30.8450  -30.2930 C   0  0  0  0  0  0  0  0  0  0  0  0
   -6.2430   33.1100  -31.2230 C   0  0  0  0  0  0  0  0  0  0  0  0
   -5.3160   33.5390  -30.1570 C   0  0  0  0  0  0  0  0  0  0  0  0
   -1.3670   33.3500  -29.4960 C   0  0  0  0  0  0  0  0  0  0  0  0
   -1.5050   33.3960  -31.0050 C   0  0  0  0  0  0  0  0  0  0  0  0
   -9.5530   27.2960  -29.1630 N   0  0  0  0  0  0  0  0  0  0  0  0
   -3.6570   29.1770  -37.8420 N   0  0  0  0  0  0  0  0  0  0  0  0
   -2.9670   31.4110  -38.0310 N   0  0  0  0  0  0  0  0  0  0  0  0
   -4.9690   33.0040  -42.0650 N   0  0  0  0  0  0  0  0  0  0  0  0
   -5.3970   30.7300  -41.9880 N   0  0  0  0  0  0  0  0  0  0  0  0
  -10.9910   35.3210  -43.4940 N   0  0  0  0  0  0  0  0  0  0  0  0
  -12.2100   35.4440  -41.5330 N   0  0  0  0  0  0  0  0  0  0  0  0
  -10.5410   38.7780  -51.0160 N   0  0  0  0  0  0  0  0  0  0  0  0
   -8.6770   40.1130  -51.5140 N   0  0  0  0  0  0  0  0  0  0  0  0
   -9.3070   29.6870  -30.1790 N   0  0  0  0  0  0  0  0  0  0  0  0
  -11.2940   28.6630  -28.8120 N   0  0  0  0  0  0  0  0  0  0  0  0
  -11.5150   32.1960  -29.3240 N   0  0  0  0  0  0  0  0  0  0  0  0
   -9.5790   31.9930  -30.4610 N   0  0  0  0  0  0  0  0  0  0  0  0
    0.5420   32.8610  -32.2230 N   0  0  0  0  0  0  0  0  0  0  0  0
    1.6110   32.0600  -34.1780 N   0  0  0  0  0  0  0  0  0  0  0  0
   -4.4030   33.0160  -36.8600 N   0  0  0  0  0  0  0  0  0  0  0  0
   -5.8080   31.5510  -36.0510 N   0  0  0  0  0  0  0  0  0  0  0  0
   -5.4950   28.5820  -36.6800 N   0  0  0  0  0  0  0  0  0  0  0  0
  -12.9420   29.9320  -28.3020 O   0  0  0  0  0  0  0  0  0  0  0  0
    0.5800   34.2430  -30.3700 O   0  0  0  0  0  0  0  0  0  0  0  0
    1.4010   34.9220  -27.5830 O   0  0  0  0  0  0  0  0  0  0  0  0
    3.4790   36.2200  -28.0750 O   0  0  0  0  0  0  0  0  0  0  0  0
    3.6210   33.9020  -27.1370 O   0  0  0  0  0  0  0  0  0  0  0  0
   -7.3350   34.3870  -32.9600 O   0  0  0  0  0  0  0  0  0  0  0  0
   -8.7820   36.1380  -34.4100 O   0  5  0  0  0  0  0  0  0  0  0  0
   -6.8990   36.9160  -32.9980 O   0  0  0  0  0  0  0  0  0  0  0  0
   -6.4300   35.7360  -35.0590 O   0  0  0  0  0  0  0  0  0  0  0  0
   -3.9460   35.1510  -35.9950 O   0  0  0  0  0  0  0  0  0  0  0  0
   -3.4120   35.6890  -39.0010 O   0  0  0  0  0  0  0  0  0  0  0  0
   -7.1090   32.0830  -30.6950 O   0  0  0  0  0  0  0  0  0  0  0  0
   -5.4300   37.2620  -38.4200 O   0  0  0  0  0  0  0  0  0  0  0  0
   -7.7930   36.6090  -39.1210 O   0  5  0  0  0  0  0  0  0  0  0  0
   -6.7810   38.7990  -39.9120 O   0  0  0  0  0  0  0  0  0  0  0  0
   -5.9380   36.6420  -40.7720 O   0  0  0  0  0  0  0  0  0  0  0  0
   -3.9720   35.1750  -41.7930 O   0  0  0  0  0  0  0  0  0  0  0  0
   -7.0020   30.0950  -40.5720 O   0  0  0  0  0  0  0  0  0  0  0  0
   -3.8630   31.3600  -43.3630 O   0  0  0  0  0  0  0  0  0  0  0  0
   -4.2170   34.6880  -45.2010 O   0  0  0  0  0  0  0  0  0  0  0  0
   -5.3950   36.7420  -44.8060 O   0  0  0  0  0  0  0  0  0  0  0  0
   -7.1360   38.5490  -44.5910 O   0  5  0  0  0  0  0  0  0  0  0  0
   -4.5660   32.4420  -29.6550 O   0  0  0  0  0  0  0  0  0  0  0  0
   -6.4370   37.7420  -46.8950 O   0  0  0  0  0  0  0  0  0  0  0  0
   -7.8260   36.2820  -45.4450 O   0  0  0  0  0  0  0  0  0  0  0  0
   -9.3710   34.2850  -44.9230 O   0  0  0  0  0  0  0  0  0  0  0  0
  -11.6740   36.8800  -39.9770 O   0  0  0  0  0  0  0  0  0  0  0  0
  -12.7000   33.9440  -43.0020 O   0  0  0  0  0  0  0  0  0  0  0  0
  -12.2730   35.9410  -46.2110 O   0  0  0  0  0  0  0  0  0  0  0  0
  -11.1020   34.0490  -47.4430 O   0  0  0  0  0  0  0  0  0  0  0  0
  -13.0070   33.3980  -48.9050 O   0  5  0  0  0  0  0  0  0  0  0  0
  -10.6980   33.6860  -49.9000 O   0  0  0  0  0  0  0  0  0  0  0  0
  -12.2400   35.6630  -49.4550 O   0  0  0  0  0  0  0  0  0  0  0  0
   -2.8780   31.3510  -28.2240 O   0  5  0  0  0  0  0  0  0  0  0  0
  -12.5700   38.2630  -49.9190 O   0  0  0  0  0  0  0  0  0  0  0  0
   -6.6370   39.4760  -50.8320 O   0  0  0  0  0  0  0  0  0  0  0  0
  -10.6670   40.7710  -52.1440 O   0  0  0  0  0  0  0  0  0  0  0  0
  -11.9180   37.4530  -53.2950 O   0  0  0  0  0  0  0  0  0  0  0  0
  -14.4070   37.8100  -52.4360 O   0  0  0  0  0  0  0  0  0  0  0  0
   -9.7340   34.5190  -32.5140 O   0  0  0  0  0  0  0  0  0  0  0  0
   -4.4350   33.0880  -27.2740 O   0  0  0  0  0  0  0  0  0  0  0  0
   -2.5670   33.7520  -28.7900 O   0  0  0  0  0  0  0  0  0  0  0  0
   -2.4790   34.3110  -31.3740 O   0  0  0  0  0  0  0  0  0  0  0  0
    2.4390   29.9980  -34.2200 O   0  0  0  0  0  0  0  0  0  0  0  0
    0.7780   34.0770  -34.1720 O   0  0  0  0  0  0  0  0  0  0  0  0
  1103  1  0  0  0  0
  1114  1  0  0  0  0
  1121  2  0  0  0  0
  1122  1  0  0  0  0
  2 83  1  0  0  0  0
  2 84  2  0  0  0  0
  2 85  2  0  0  0  0
  3 86  1  0  0  0  0
  3 87  1  0  0  0  0
  3 88  2  0  0  0  0
  3 89  1  0  0  0  0
  4 93  1  0  0  0  0
  4 94  1  0  0  0  0
  4 95  2  0  0  0  0
  4 96  1  0  0  0  0
  5101  1  0  0  0  0
  5102  1  0  0  0  0
  5104  2  0  0  0  0
  5105  1  0  0  0  0
  6110  1  0  0  0  0
  6111  1  0  0  0  0
  6112  2  0  0  0  0
  6113  1  0  0  0  0
  7 63  1  0  0  0  0
  7 72  1  0  0  0  0
  7 73  1  0  0  0  0
  8 62  1  0  0  0  0
  8 76  1  0  0  0  0
  8 82  1  0  0  0  0
  9 10  4  0  0  0  0
  9 76  4  0  0  0  0
 10 11  4  0  0  0  0
 11 77  4  0  0  0  0
 11124  2  0  0  0  0
 12 76  4  0  0  0  0
 12 77  4  0  0  0  0
 12125  2  0  0  0  0
 13 14  1  0  0  0  0
 13 61  1  0  0  0  0
 13 82  1  0  0  0  0
 14 83  1  0  0  0  0
 15 57  1  0  0  0  0
 15 59  1  0  0  0  0
 15 86  1  0  0  0  0
 16 17  1  0  0  0  0
 16 89  1  0  0  0  0
 17 26  1  0  0  0  0
 17 90  1  0  0  0  0
 18 29  1  0  0  0  0
 18 73  1  0  0  0  0
 18 81  2  0  0  0  0
 19 25  1  0  0  0  0
 19 78  1  0  0  0  0
 19 90  1  0  0  0  0
 20 78  4  0  0  0  0
 20 79  4  0  0  0  0
 21 22  4  0  0  0  0
 21 24  4  0  0  0  0
 21 79  4  0  0  0  0
 22 64  4  0  0  0  0
 22 80  1  0  0  0  0
 23 64  4  0  0  0  0
 23 65  4  0  0  0  0
 24 65  4  0  0  0  0
 24 78  4  0  0  0  0
 25 26  1  0  0  0  0
 25 91  1  0  0  0  0
 26 93  1  0  0  0  0
 27 28  1  0  0  0  0
 27 96  1  0  0  0  0
 28 36  1  0  0  0  0
 28 97  1  0  0  0  0
 29 58  4  0  0  0  0
 29 74  4  0  0  0  0
 30 35  1  0  0  0  0
 30 66  1  0  0  0  0
 30 97  1  0  0  0  0
 31 32  4  0  0  0  0
 31 66  4  0  0  0  0
 32 33  4  0  0  0  0
 33 67  4  0  0  0  0
 33 98  2  0  0  0  0
 34 66  4  0  0  0  0
 34 67  4  0  0  0  0
 34 99  2  0  0  0  0
 35 36  1  0  0  0  0
 35100  1  0  0  0  0
 36101  1  0  0  0  0
 37 38  1  0  0  0  0
 37105  1  0  0  0  0
 38 46  1  0  0  0  0
 38106  1  0  0  0  0
 39 45  1  0  0  0  0
 39 68  1  0  0  0  0
 39106  1  0  0  0  0
 40 74  4  0  0  0  0
 40 75  4  0  0  0  0
 41 42  4  0  0  0  0
 41 68  4  0  0  0  0
 42 43  4  0  0  0  0
 43 69  4  0  0  0  0
 43107  2  0  0  0  0
 44 68  4  0  0  0  0
 44 69  4  0  0  0  0
 44108  2  0  0  0  0
 45 46  1  0  0  0  0
 45109  1  0  0  0  0
 46110  1  0  0  0  0
 47 48  1  0  0  0  0
 47113  1  0  0  0  0
 48 56  1  0  0  0  0
 48115  1  0  0  0  0
 49 55  1  0  0  0  0
 49 70  1  0  0  0  0
 49115  1  0  0  0  0
 50 52  4  0  0  0  0
 50 70  4  0  0  0  0
 51 57  1  0  0  0  0
 51 75  1  0  0  0  0
 51 92  1  0  0  0  0
 52 53  4  0  0  0  0
 53 71  4  0  0  0  0
 53116  2  0  0  0  0
 54 70  4  0  0  0  0
 54 71  4  0  0  0  0
 54117  2  0  0  0  0
 55 56  1  0  0  0  0
 55118  1  0  0  0  0
 56119  1  0  0  0  0
 57120  1  0  0  0  0
 58 72  1  0  0  0  0
 58 75  4  0  0  0  0
 59 60  1  0  0  0  0
 59 92  1  0  0  0  0
 60103  1  0  0  0  0
 61 62  1  0  0  0  0
 61122  1  0  0  0  0
 62123  1  0  0  0  0
M  END
$$$$
