complex
  PyMOL3.0          3D                             0

 37 40  0  0  0  0  0  0  0  0999 V2000
   33.4060   15.2080   30.2600 C   0  0  0  0  0  0  0  0  0  0  0  0
   29.5360   14.2030   36.1400 C   0  0  0  0  0  0  0  0  0  0  0  0
   29.8670   15.5730   35.7600 C   0  0  0  0  0  0  0  0  0  0  0  0
   28.9870   16.5660   35.5230 C   0  0  0  0  0  0  0  0  0  0  0  0
   29.0020   18.9010   34.8230 C   0  0  0  0  0  0  0  0  0  0  0  0
   30.9370   17.4140   35.1320 C   0  0  0  0  0  0  0  0  0  0  0  0
   32.0280   18.1980   34.8160 C   0  0  0  0  0  0  0  0  0  0  0  0
   33.3050   17.6450   34.8780 C   0  0  0  0  0  0  0  0  0  0  0  0
   33.4960   16.3370   35.2520 C   0  0  0  0  0  0  0  0  0  0  0  0
   32.4040   15.5490   35.5890 C   0  0  0  0  0  0  0  0  0  0  0  0
   31.1270   16.0710   35.5030 C   0  0  0  0  0  0  0  0  0  0  0  0
   34.0720   15.1470   31.5140 C   0  0  0  0  0  0  0  0  0  0  0  0
   33.1480   10.0490   35.4350 C   0  0  0  0  0  0  0  0  0  0  0  0
   33.6120    7.9410   36.4240 C   0  0  0  0  0  0  0  0  0  0  0  0
   34.4260   10.0980   34.8620 C   0  0  0  0  0  0  0  0  0  0  0  0
   34.7960   11.1450   34.0200 C   0  0  0  0  0  0  0  0  0  0  0  0
   37.1760   11.3430   34.3680 C   0  0  0  0  0  0  0  0  0  0  0  0
   36.3470   10.5620   32.1400 C   0  0  0  0  0  0  0  0  0  0  0  0
   35.6920    9.2280   31.9740 C   0  0  0  0  0  0  0  0  0  0  0  0
   37.6510    7.8870   31.4970 C   0  0  0  0  0  0  0  0  0  0  0  0
   35.4930    7.2420   30.7180 C   0  0  0  0  0  0  0  0  0  0  0  0
   33.4760   14.1800   32.4570 C   0  0  0  0  0  0  0  0  0  0  0  0
   33.8810   12.1690   33.7390 C   0  0  0  0  0  0  0  0  0  0  0  0
   32.5940   12.1150   34.3150 C   0  0  0  0  0  0  0  0  0  0  0  0
   32.2130   11.0640   35.1680 C   0  0  0  0  0  0  0  0  0  0  0  0
   30.1260   11.9680   36.1390 C   0  0  0  0  0  0  0  0  0  0  0  0
   28.1570   12.5670   37.0980 C   0  0  0  0  0  0  0  0  0  0  0  0
   28.3590   13.8890   36.7920 C   0  0  0  0  0  0  0  0  0  0  0  0
   34.2400   13.1900   32.8800 N   0  0  0  0  0  0  0  0  0  0  0  0
   30.9960   11.0140   35.7960 N   0  0  0  0  0  0  0  0  0  0  0  0
   28.9960   11.6290   36.7690 N   0  0  0  0  0  0  0  0  0  0  0  0
   29.6380   17.6510   35.1580 N   0  0  0  0  0  0  0  0  0  0  0  0
   30.3940   13.2220   35.8160 N   0  0  0  0  0  0  0  0  0  0  0  0
   36.0840   11.1190   33.4740 N   0  0  0  0  0  0  0  0  0  0  0  0
   36.3470    8.3590   30.9980 N   0  0  0  0  0  0  0  0  0  0  0  0
   32.2800   14.3340   32.7770 O   0  0  0  0  0  0  0  0  0  0  0  0
   32.7520    9.0510   36.2520 O   0  0  0  0  0  0  0  0  0  0  0  0
  1 12  1  0  0  0  0
  2  3  1  0  0  0  0
  2 28  4  0  0  0  0
  2 33  4  0  0  0  0
  3  4  4  0  0  0  0
  3 11  4  0  0  0  0
  4 32  4  0  0  0  0
  5 32  1  0  0  0  0
  6  7  4  0  0  0  0
  6 11  4  0  0  0  0
  6 32  4  0  0  0  0
  7  8  4  0  0  0  0
  8  9  4  0  0  0  0
  9 10  4  0  0  0  0
 10 11  4  0  0  0  0
 12 22  1  0  0  0  0
 13 15  4  0  0  0  0
 13 25  4  0  0  0  0
 13 37  1  0  0  0  0
 14 37  1  0  0  0  0
 15 16  4  0  0  0  0
 16 23  4  0  0  0  0
 16 34  1  0  0  0  0
 17 34  1  0  0  0  0
 18 19  1  0  0  0  0
 18 34  1  0  0  0  0
 19 35  1  0  0  0  0
 20 35  1  0  0  0  0
 21 35  1  0  0  0  0
 22 29  1  0  0  0  0
 22 36  2  0  0  0  0
 23 24  4  0  0  0  0
 23 29  1  0  0  0  0
 24 25  4  0  0  0  0
 25 30  1  0  0  0  0
 26 30  1  0  0  0  0
 26 31  4  0  0  0  0
 26 33  4  0  0  0  0
 27 28  4  0  0  0  0
 27 31  4  0  0  0  0
M  END
$$$$
