complex
  PyMOL3.0          3D                             0

 16 17  0  0  0  0  0  0  0  0999 V2000
   30.2990  -20.3870  -40.8570 Se  0  0  0  0  0  0  0  0  0  0  0  0
   28.5830  -18.1860  -42.2520 C   0  0  0  0  0  0  0  0  0  0  0  0
   25.7940  -20.1280  -40.7480 C   0  0  0  0  0  0  0  0  0  0  0  0
   26.4030  -21.1100  -40.0950 C   0  0  0  0  0  0  0  0  0  0  0  0
   27.7650  -21.1780  -40.1210 C   0  0  0  0  0  0  0  0  0  0  0  0
   28.4990  -20.2730  -40.7950 C   0  0  0  0  0  0  0  0  0  0  0  0
   28.4250  -16.5270  -43.9520 C   0  0  0  0  0  0  0  0  0  0  0  0
   29.7630  -16.1980  -43.9810 C   0  0  0  0  0  0  0  0  0  0  0  0
   30.2530  -15.2450  -44.7970 C   0  0  0  0  0  0  0  0  0  0  0  0
   29.4130  -14.5570  -45.6680 C   0  0  0  0  0  0  0  0  0  0  0  0
   28.0520  -14.8760  -45.6540 C   0  0  0  0  0  0  0  0  0  0  0  0
   27.5800  -15.8460  -44.8180 C   0  0  0  0  0  0  0  0  0  0  0  0
   27.8490  -19.2320  -41.4700 C   0  0  0  0  0  0  0  0  0  0  0  0
   26.5230  -19.2030  -41.4410 C   0  0  0  0  0  0  0  0  0  0  0  0
   27.8870  -17.4970  -43.1440 N   0  0  0  0  0  0  0  0  0  0  0  0
   29.7390  -18.0000  -42.0410 O   0  0  0  0  0  0  0  0  0  0  0  0
  1  6  1  0  0  0  0
  2 13  1  0  0  0  0
  2 15  1  0  0  0  0
  2 16  2  0  0  0  0
  3  4  4  0  0  0  0
  3 14  4  0  0  0  0
  4  5  4  0  0  0  0
  5  6  4  0  0  0  0
  6 13  4  0  0  0  0
  7  8  4  0  0  0  0
  7 12  4  0  0  0  0
  7 15  1  0  0  0  0
  8  9  4  0  0  0  0
  9 10  4  0  0  0  0
 10 11  4  0  0  0  0
 11 12  4  0  0  0  0
 13 14  4  0  0  0  0
M  END
$$$$
