complex
  PyMOL3.0          3D                             0

 22 23  0  0  0  0  0  0  0  0999 V2000
  -33.7250   17.6660  -15.2340 C   0  0  0  0  0  0  0  0  0  0  0  0
  -34.0960   19.2650  -13.4760 C   0  0  0  0  0  0  0  0  0  0  0  0
  -33.9790   19.3050  -11.0230 C   0  0  0  0  0  0  0  0  0  0  0  0
  -35.0080   20.2580  -10.4880 C   0  0  0  0  0  0  0  0  0  0  0  0
  -36.1400   22.0530  -11.6840 C   0  0  0  0  0  0  0  0  0  0  0  0
  -36.0440   23.4340  -12.2470 C   0  0  0  0  0  0  0  0  0  0  0  0
  -34.2330   23.9310  -10.7590 C   0  0  0  0  0  0  0  0  0  0  0  0
  -34.3050   22.5300  -10.1790 C   0  0  0  0  0  0  0  0  0  0  0  0
  -34.5270   18.6050  -14.6630 C   0  0  0  0  0  0  0  0  0  0  0  0
  -35.7800   18.9410  -15.2440 C   0  0  0  0  0  0  0  0  0  0  0  0
  -36.8340   18.1110  -14.7070 C   0  0  0  0  0  0  0  0  0  0  0  0
  -37.2350   16.9670  -15.3780 C   0  0  0  0  0  0  0  0  0  0  0  0
  -38.2010   16.1540  -14.8480 C   0  0  0  0  0  0  0  0  0  0  0  0
  -38.7690   16.4670  -13.6320 C   0  0  0  0  0  0  0  0  0  0  0  0
  -38.3870   17.6310  -12.9720 C   0  0  0  0  0  0  0  0  0  0  0  0
  -37.4210   18.4410  -13.5060 C   0  0  0  0  0  0  0  0  0  0  0  0
  -33.1210   16.9050  -15.8030 N   0  0  0  0  0  0  0  0  0  0  0  0
  -34.4150   18.7100  -12.2940 N   0  0  0  0  0  0  0  0  0  0  0  0
  -34.8800   21.5830  -11.1090 N   0  0  0  0  0  0  0  0  0  0  0  0
  -39.6880   15.6660  -13.1110 O   0  0  0  0  0  0  0  0  0  0  0  0
  -33.5140   20.3420  -13.5230 O   0  0  0  0  0  0  0  0  0  0  0  0
  -35.4980   24.3270  -11.2830 O   0  0  0  0  0  0  0  0  0  0  0  0
  1  9  1  0  0  0  0
  1 17  3  0  0  0  0
  2  9  1  0  0  0  0
  2 18  1  0  0  0  0
  2 21  2  0  0  0  0
  3  4  1  0  0  0  0
  3 18  1  0  0  0  0
  4 19  1  0  0  0  0
  5  6  1  0  0  0  0
  5 19  1  0  0  0  0
  6 22  1  0  0  0  0
  7  8  1  0  0  0  0
  7 22  1  0  0  0  0
  8 19  1  0  0  0  0
  9 10  1  0  0  0  0
 10 11  1  0  0  0  0
 11 12  4  0  0  0  0
 11 16  4  0  0  0  0
 12 13  4  0  0  0  0
 13 14  4  0  0  0  0
 14 15  4  0  0  0  0
 14 20  1  0  0  0  0
 15 16  4  0  0  0  0
M  END
$$$$
