complex
  PyMOL3.0          3D                             0

 48 50  0  0  0  0  0  0  0  0999 V2000
  -41.0780   57.6730   -0.0200 P   0  0  0  0  0  0  0  0  0  0  0  0
  -40.4930   60.0040   -1.3800 P   0  0  0  0  0  0  0  0  0  0  0  0
  -45.4150   64.0560   -0.5120 P   0  0  0  0  0  0  0  0  0  0  0  0
  -38.0860   57.5290    4.0660 C   0  0  0  0  0  0  0  0  0  0  0  0
  -36.6230   66.6650   -1.1130 C   0  0  0  0  0  0  0  0  0  0  0  0
  -38.2980   68.1670   -0.6510 C   0  0  0  0  0  0  0  0  0  0  0  0
  -38.8720   65.9720   -0.6300 C   0  0  0  0  0  0  0  0  0  0  0  0
  -41.7550   64.1750   -1.3790 C   0  0  0  0  0  0  0  0  0  0  0  0
  -42.8920   63.4700   -0.7310 C   0  0  0  0  0  0  0  0  0  0  0  0
  -38.1970   55.7790    2.2470 C   0  0  0  0  0  0  0  0  0  0  0  0
  -37.3820   54.7630    3.0520 C   0  0  0  0  0  0  0  0  0  0  0  0
  -35.1200   53.9430    3.6180 C   0  0  0  0  0  0  0  0  0  0  0  0
  -34.9820   52.7140    2.7520 C   0  0  0  0  0  0  0  0  0  0  0  0
  -33.8430   51.8790    3.2990 C   0  0  0  0  0  0  0  0  0  0  0  0
  -39.0030   56.7260    3.1150 C   0  0  0  0  0  0  0  0  0  0  0  0
  -31.6120   50.9920    2.8940 C   0  0  0  0  0  0  0  0  0  0  0  0
  -30.7890   51.6100    3.9890 C   0  0  0  0  0  0  0  0  0  0  0  0
  -40.0510   55.9900    3.9160 C   0  0  0  0  0  0  0  0  0  0  0  0
  -39.7450   57.7010    2.2010 C   0  0  0  0  0  0  0  0  0  0  0  0
  -41.8710   61.4430    0.3300 C   0  0  0  0  0  0  0  0  0  0  0  0
  -42.2530   62.8970    0.5390 C   0  0  0  0  0  0  0  0  0  0  0  0
  -40.9610   64.6610   -0.1860 C   0  0  0  0  0  0  0  0  0  0  0  0
  -38.6840   63.8270   -0.7580 C   0  0  0  0  0  0  0  0  0  0  0  0
  -37.5710   65.6240   -0.9380 C   0  0  0  0  0  0  0  0  0  0  0  0
  -39.5300   64.8180   -0.5210 N   0  0  0  0  0  0  0  0  0  0  0  0
  -37.4920   64.2880   -1.0170 N   0  0  0  0  0  0  0  0  0  0  0  0
  -35.3430   66.4190   -1.3990 N   0  0  0  0  0  0  0  0  0  0  0  0
  -37.0350   67.9210   -0.9560 N   0  0  0  0  0  0  0  0  0  0  0  0
  -39.2260   67.2530   -0.4760 N   0  0  0  0  0  0  0  0  0  0  0  0
  -36.0340   54.8670    2.9810 N   0  0  0  0  0  0  0  0  0  0  0  0
  -32.7260   51.8110    2.5300 N   0  0  0  0  0  0  0  0  0  0  0  0
  -40.3980   56.9450    1.1860 O   0  0  0  0  0  0  0  0  0  0  0  0
  -43.8520   64.4070   -0.3520 O   0  0  0  0  0  0  0  0  0  0  0  0
  -45.6970   63.7090   -1.9580 O   0  0  0  0  0  0  0  0  0  0  0  0
  -46.1980   65.3130   -0.0870 O   0  5  0  0  0  0  0  0  0  0  0  0
  -45.7480   62.9290    0.4160 O   0  0  0  0  0  0  0  0  0  0  0  0
  -37.3590   56.5500    1.4110 O   0  0  0  0  0  0  0  0  0  0  0  0
  -37.9530   53.9100    3.6960 O   0  0  0  0  0  0  0  0  0  0  0  0
  -34.0360   51.2900    4.3490 O   0  0  0  0  0  0  0  0  0  0  0  0
  -42.4360   58.1950    0.4240 O   0  5  0  0  0  0  0  0  0  0  0  0
  -41.1740   56.7580   -1.1860 O   0  0  0  0  0  0  0  0  0  0  0  0
  -40.1300   58.8920   -0.3310 O   0  0  0  0  0  0  0  0  0  0  0  0
  -39.3050   60.2390   -2.2470 O   0  5  0  0  0  0  0  0  0  0  0  0
  -41.7600   59.7100   -2.0790 O   0  0  0  0  0  0  0  0  0  0  0  0
  -40.7250   61.3360   -0.5060 O   0  0  0  0  0  0  0  0  0  0  0  0
  -41.0730   63.6540    0.8630 O   0  0  0  0  0  0  0  0  0  0  0  0
  -42.1920   65.2770   -2.1710 O   0  0  0  0  0  0  0  0  0  0  0  0
  -29.4160   50.5460    4.3740 S   0  0  0  0  0  0  0  0  0  0  0  0
  1 32  1  0  0  0  0
  1 40  1  0  0  0  0
  1 41  2  0  0  0  0
  1 42  1  0  0  0  0
  2 42  1  0  0  0  0
  2 43  1  0  0  0  0
  2 44  2  0  0  0  0
  2 45  1  0  0  0  0
  3 33  1  0  0  0  0
  3 34  1  0  0  0  0
  3 35  1  0  0  0  0
  3 36  2  0  0  0  0
  4 15  1  0  0  0  0
  5 24  4  0  0  0  0
  5 27  1  0  0  0  0
  5 28  4  0  0  0  0
  6 28  4  0  0  0  0
  6 29  4  0  0  0  0
  7 24  4  0  0  0  0
  7 25  4  0  0  0  0
  7 29  4  0  0  0  0
  8  9  1  0  0  0  0
  8 22  1  0  0  0  0
  8 47  1  0  0  0  0
  9 21  1  0  0  0  0
  9 33  1  0  0  0  0
 10 11  1  0  0  0  0
 10 15  1  0  0  0  0
 10 37  1  0  0  0  0
 11 30  1  0  0  0  0
 11 38  2  0  0  0  0
 12 13  1  0  0  0  0
 12 30  1  0  0  0  0
 13 14  1  0  0  0  0
 14 31  1  0  0  0  0
 14 39  2  0  0  0  0
 15 18  1  0  0  0  0
 15 19  1  0  0  0  0
 16 17  1  0  0  0  0
 16 31  1  0  0  0  0
 17 48  1  0  0  0  0
 19 32  1  0  0  0  0
 20 21  1  0  0  0  0
 20 45  1  0  0  0  0
 21 46  1  0  0  0  0
 22 25  1  0  0  0  0
 22 46  1  0  0  0  0
 23 25  4  0  0  0  0
 23 26  4  0  0  0  0
 24 26  4  0  0  0  0
M  END
$$$$
