complex
  PyMOL3.0          3D                             0

 53 55  0  0  0  0  0  0  0  0999 V2000
    3.9570   29.5610    9.9130 P   0  0  0  0  0  0  0  0  0  0  0  0
    3.5830   26.1410    8.1700 C   0  0  0  0  0  0  0  0  0  0  0  0
   13.0720   32.2570    3.3940 C   0  0  0  0  0  0  0  0  0  0  0  0
   11.8720   32.8370    3.9010 C   0  0  0  0  0  0  0  0  0  0  0  0
   11.8020   34.1740    4.2130 C   0  0  0  0  0  0  0  0  0  0  0  0
   10.6290   34.7170    4.6830 C   0  0  0  0  0  0  0  0  0  0  0  0
   10.5490   36.0430    4.9800 C   0  0  0  0  0  0  0  0  0  0  0  0
    9.3470   36.5700    5.4400 C   0  0  0  0  0  0  0  0  0  0  0  0
    8.2240   35.7650    5.6010 C   0  0  0  0  0  0  0  0  0  0  0  0
    8.3110   34.4150    5.3190 C   0  0  0  0  0  0  0  0  0  0  0  0
    9.4790   33.8620    4.8340 C   0  0  0  0  0  0  0  0  0  0  0  0
    1.6850   27.0290    9.4880 C   0  0  0  0  0  0  0  0  0  0  0  0
    2.9610   27.3670    8.7740 C   0  0  0  0  0  0  0  0  0  0  0  0
    0.6530   26.2360   11.5550 C   0  0  0  0  0  0  0  0  0  0  0  0
    0.7600   24.7790   12.0040 C   0  0  0  0  0  0  0  0  0  0  0  0
    0.4480   23.7060   10.9780 C   0  0  0  0  0  0  0  0  0  0  0  0
    0.3180   22.4020   11.6840 C   0  0  0  0  0  0  0  0  0  0  0  0
    1.0280   20.1140   11.9050 C   0  0  0  0  0  0  0  0  0  0  0  0
    0.1350   19.1160   11.2050 C   0  0  0  0  0  0  0  0  0  0  0  0
   -1.3410   19.4600   11.1760 C   0  0  0  0  0  0  0  0  0  0  0  0
   -2.2050   18.2640   10.9040 C   0  0  0  0  0  0  0  0  0  0  0  0
    2.4540   19.6440   11.9990 C   0  0  0  0  0  0  0  0  0  0  0  0
    0.5830   27.1150   12.7890 C   0  0  0  0  0  0  0  0  0  0  0  0
    5.2090   31.3290    8.4140 C   0  0  0  0  0  0  0  0  0  0  0  0
    6.6070   31.5790    7.9820 C   0  0  0  0  0  0  0  0  0  0  0  0
    6.9600   30.8350    6.7030 C   0  0  0  0  0  0  0  0  0  0  0  0
    8.3970   31.2250    6.2330 C   0  0  0  0  0  0  0  0  0  0  0  0
    8.4040   31.6200    4.7530 C   0  0  0  0  0  0  0  0  0  0  0  0
   10.7100   32.0010    4.0680 C   0  0  0  0  0  0  0  0  0  0  0  0
   11.8900   30.1260    3.2870 C   0  0  0  0  0  0  0  0  0  0  0  0
    9.5560   32.5340    4.5430 N   0  0  0  0  0  0  0  0  0  0  0  0
   10.7720   30.6780    3.7700 N   0  0  0  0  0  0  0  0  0  0  0  0
   13.0480   30.9020    3.1120 N   0  0  0  0  0  0  0  0  0  0  0  0
    1.8200   26.6670   10.7200 N   0  0  0  0  0  0  0  0  0  0  0  0
    1.0100   21.4040   11.2280 N   0  0  0  0  0  0  0  0  0  0  0  0
    3.8860   27.9830    9.7080 O   0  0  0  0  0  0  0  0  0  0  0  0
    7.1260   36.2690    6.0260 O   0  0  0  0  0  0  0  0  0  0  0  0
    0.5950   27.0580    8.9290 O   0  0  0  0  0  0  0  0  0  0  0  0
   -0.4270   22.2660   12.6370 O   0  0  0  0  0  0  0  0  0  0  0  0
   -2.3210   17.8960    9.7040 O   0  0  0  0  0  0  0  0  0  0  0  0
   -2.8020   17.6950   11.8610 O   0  0  0  0  0  0  0  0  0  0  0  0
    2.7360   18.7790   12.8410 O   0  0  0  0  0  0  0  0  0  0  0  0
    3.3270   20.1550   11.2220 O   0  0  0  0  0  0  0  0  0  0  0  0
    1.6700   27.4520   13.3020 O   0  0  0  0  0  0  0  0  0  0  0  0
   -0.5360   27.4360   13.2260 O   0  0  0  0  0  0  0  0  0  0  0  0
    2.7040   30.2030    9.4280 O   0  5  0  0  0  0  0  0  0  0  0  0
    4.3110   29.8850   11.3140 O   0  0  0  0  0  0  0  0  0  0  0  0
    5.1140   30.0080    8.9500 O   0  0  0  0  0  0  0  0  0  0  0  0
    7.5200   31.2440    8.9620 O   0  0  0  0  0  0  0  0  0  0  0  0
    5.9870   31.0400    5.7330 O   0  0  0  0  0  0  0  0  0  0  0  0
    9.2220   30.0920    6.4700 O   0  0  0  0  0  0  0  0  0  0  0  0
   11.9150   28.9330    3.0000 O   0  0  0  0  0  0  0  0  0  0  0  0
   14.0630   32.8970    3.2350 O   0  0  0  0  0  0  0  0  0  0  0  0
  1 36  1  0  0  0  0
  1 46  1  0  0  0  0
  1 47  2  0  0  0  0
  1 48  1  0  0  0  0
  2 13  1  0  0  0  0
  3  4  4  0  0  0  0
  3 33  4  0  0  0  0
  3 53  2  0  0  0  0
  4  5  4  0  0  0  0
  4 29  4  0  0  0  0
  5  6  4  0  0  0  0
  6  7  4  0  0  0  0
  6 11  4  0  0  0  0
  7  8  4  0  0  0  0
  8  9  4  0  0  0  0
  9 10  4  0  0  0  0
  9 37  2  0  0  0  0
 10 11  4  0  0  0  0
 11 31  4  0  0  0  0
 12 13  1  0  0  0  0
 12 34  1  0  0  0  0
 12 38  2  0  0  0  0
 13 36  1  0  0  0  0
 14 15  1  0  0  0  0
 14 23  1  0  0  0  0
 14 34  1  0  0  0  0
 15 16  1  0  0  0  0
 16 17  1  0  0  0  0
 17 35  1  0  0  0  0
 17 39  2  0  0  0  0
 18 19  1  0  0  0  0
 18 22  1  0  0  0  0
 18 35  1  0  0  0  0
 19 20  1  0  0  0  0
 20 21  1  0  0  0  0
 21 40  4  0  0  0  0
 21 41  4  0  0  0  0
 22 42  4  0  0  0  0
 22 43  4  0  0  0  0
 23 44  4  0  0  0  0
 23 45  4  0  0  0  0
 24 25  1  0  0  0  0
 24 48  1  0  0  0  0
 25 26  1  0  0  0  0
 25 49  1  0  0  0  0
 26 27  1  0  0  0  0
 26 50  1  0  0  0  0
 27 28  1  0  0  0  0
 27 51  1  0  0  0  0
 28 31  1  0  0  0  0
 29 31  4  0  0  0  0
 29 32  4  0  0  0  0
 30 32  4  0  0  0  0
 30 33  4  0  0  0  0
 30 52  2  0  0  0  0
M  END
$$$$
