complex
  PyMOL3.0          3D                             0

 65 64  0  0  0  0  0  0  0  0999 V2000
   23.9560   72.5450    0.0590 C   0  0  0  0  0  0  0  0  0  0  0  0
   31.3070   74.5390   -1.6550 C   0  0  0  0  0  0  0  0  0  0  0  0
   30.6030   76.2860   -3.2540 C   0  0  0  0  0  0  0  0  0  0  0  0
   27.3740   76.7910   -3.8600 C   0  0  0  0  0  0  0  0  0  0  0  0
   27.5210   78.2420   -3.4940 C   0  0  0  0  0  0  0  0  0  0  0  0
   26.2680   78.7410   -2.7350 C   0  0  0  0  0  0  0  0  0  0  0  0
   26.3680   80.2180   -2.3640 C   0  0  0  0  0  0  0  0  0  0  0  0
   25.1510   80.7580   -1.6660 C   0  0  0  0  0  0  0  0  0  0  0  0
   28.6170   79.9460   -4.9710 C   0  0  0  0  0  0  0  0  0  0  0  0
   28.4490   80.7470   -6.2550 C   0  0  0  0  0  0  0  0  0  0  0  0
   29.7270   81.0760   -6.9100 C   0  0  0  0  0  0  0  0  0  0  0  0
   23.7560   72.6330   -1.4540 C   0  0  0  0  0  0  0  0  0  0  0  0
   29.5720   82.1360   -7.9790 C   0  0  0  0  0  0  0  0  0  0  0  0
   30.8420   82.3650   -8.7390 C   0  0  0  0  0  0  0  0  0  0  0  0
   26.3630   82.0750   -5.8310 C   0  0  0  0  0  0  0  0  0  0  0  0
   25.8140   83.4690   -5.4210 C   0  0  0  0  0  0  0  0  0  0  0  0
   26.4920   83.8980   -4.1530 C   0  0  0  0  0  0  0  0  0  0  0  0
   27.4820   85.0190   -4.4340 C   0  0  0  0  0  0  0  0  0  0  0  0
   28.4370   85.2800   -3.2830 C   0  0  0  0  0  0  0  0  0  0  0  0
   30.6750   84.3820   -3.7570 C   0  0  0  0  0  0  0  0  0  0  0  0
   23.5780   84.4180   -5.8730 C   0  0  0  0  0  0  0  0  0  0  0  0
   22.0810   84.3190   -5.8380 C   0  0  0  0  0  0  0  0  0  0  0  0
   22.3090   72.4200   -1.7790 C   0  0  0  0  0  0  0  0  0  0  0  0
   21.5400   83.9750   -7.2500 C   0  0  0  0  0  0  0  0  0  0  0  0
   22.2290   82.8350   -7.9460 C   0  0  0  0  0  0  0  0  0  0  0  0
   21.3950   82.3190   -9.0940 C   0  0  0  0  0  0  0  0  0  0  0  0
   21.4650   80.6760  -10.9260 C   0  0  0  0  0  0  0  0  0  0  0  0
   26.7910   70.3420   -1.7050 C   0  0  0  0  0  0  0  0  0  0  0  0
   26.9900   68.2060   -0.4860 C   0  0  0  0  0  0  0  0  0  0  0  0
   25.9310   67.2450   -0.1120 C   0  0  0  0  0  0  0  0  0  0  0  0
   28.1160   68.3750    0.5210 C   0  0  0  0  0  0  0  0  0  0  0  0
   27.5910   68.6340    1.9470 C   0  0  0  0  0  0  0  0  0  0  0  0
   28.7100   68.9760    2.9040 C   0  0  0  0  0  0  0  0  0  0  0  0
   24.6650   71.6290   -2.2150 C   0  0  0  0  0  0  0  0  0  0  0  0
   26.1580   71.7100   -1.8120 C   0  0  0  0  0  0  0  0  0  0  0  0
   27.5710   73.6750   -2.3260 C   0  0  0  0  0  0  0  0  0  0  0  0
   28.2700   74.4680   -3.4440 C   0  0  0  0  0  0  0  0  0  0  0  0
   29.7330   73.8930   -3.4750 C   0  0  0  0  0  0  0  0  0  0  0  0
   30.8850   74.8370   -3.1010 C   0  0  0  0  0  0  0  0  0  0  0  0
   26.8740   72.5520   -2.7180 N   0  0  0  0  0  0  0  0  0  0  0  0
   21.4850   85.6160   -5.3930 N   0  0  0  0  0  0  0  0  0  0  0  0
   22.0970   81.3480   -9.9380 N   0  0  0  0  0  0  0  0  0  0  0  0
   20.1590   80.7440  -11.0120 N   0  0  0  0  0  0  0  0  0  0  0  0
   22.1820   79.9840  -11.8040 N   0  0  0  0  0  0  0  0  0  0  0  0
   26.3600   69.5420   -0.7180 N   0  0  0  0  0  0  0  0  0  0  0  0
   28.1970   75.9130   -3.1150 N   0  0  0  0  0  0  0  0  0  0  0  0
   27.6360   79.0350   -4.7100 N   0  0  0  0  0  0  0  0  0  0  0  0
   31.1590   83.6300   -9.0480 N   0  0  0  0  0  0  0  0  0  0  0  0
   27.6990   81.9960   -5.9790 N   0  0  0  0  0  0  0  0  0  0  0  0
   29.4370   84.2220   -3.2130 N   0  0  0  0  0  0  0  0  0  0  0  0
   31.2070   83.4530   -4.5020 N   0  0  0  0  0  0  0  0  0  0  0  0
   31.2940   85.5120   -3.5640 N   0  0  0  0  0  0  0  0  0  0  0  0
   24.3350   83.4730   -5.2880 N   0  0  0  0  0  0  0  0  0  0  0  0
   27.6340   73.9820   -1.1520 O   0  0  0  0  0  0  0  0  0  0  0  0
   26.4720   65.9590   -0.1400 O   0  0  0  0  0  0  0  0  0  0  0  0
   28.7170   70.1100    3.4350 O   0  0  0  0  0  0  0  0  0  0  0  0
   29.6000   68.1150    3.1150 O   0  0  0  0  0  0  0  0  0  0  0  0
   26.6300   76.4030   -4.7070 O   0  0  0  0  0  0  0  0  0  0  0  0
   24.6540   80.0870   -0.7080 O   0  0  0  0  0  0  0  0  0  0  0  0
   24.6540   81.8070   -2.0610 O   0  0  0  0  0  0  0  0  0  0  0  0
   29.5110   80.1450   -4.1800 O   0  0  0  0  0  0  0  0  0  0  0  0
   31.5200   81.4390   -9.0870 O   0  0  0  0  0  0  0  0  0  0  0  0
   25.6520   81.1080   -6.0440 O   0  0  0  0  0  0  0  0  0  0  0  0
   24.0590   85.3150   -6.5060 O   0  0  0  0  0  0  0  0  0  0  0  0
   27.6780   70.0010   -2.4680 O   0  0  0  0  0  0  0  0  0  0  0  0
  1 12  1  0  0  0  0
  2 39  1  0  0  0  0
  3 39  1  0  0  0  0
  4  5  1  0  0  0  0
  4 46  1  0  0  0  0
  4 58  2  0  0  0  0
  5  6  1  0  0  0  0
  5 47  1  0  0  0  0
  6  7  1  0  0  0  0
  7  8  1  0  0  0  0
  8 59  1  0  0  0  0
  8 60  2  0  0  0  0
  9 10  1  0  0  0  0
  9 47  1  0  0  0  0
  9 61  2  0  0  0  0
 10 11  1  0  0  0  0
 10 49  1  0  0  0  0
 11 13  1  0  0  0  0
 12 23  1  0  0  0  0
 12 34  1  0  0  0  0
 13 14  1  0  0  0  0
 14 48  1  0  0  0  0
 14 62  2  0  0  0  0
 15 16  1  0  0  0  0
 15 49  1  0  0  0  0
 15 63  2  0  0  0  0
 16 17  1  0  0  0  0
 16 53  1  0  0  0  0
 17 18  1  0  0  0  0
 18 19  1  0  0  0  0
 19 50  1  0  0  0  0
 20 50  1  0  0  0  0
 20 51  4  0  0  0  0
 20 52  4  0  0  0  0
 21 22  1  0  0  0  0
 21 53  1  0  0  0  0
 21 64  2  0  0  0  0
 22 24  1  0  0  0  0
 22 41  1  0  0  0  0
 24 25  1  0  0  0  0
 25 26  1  0  0  0  0
 26 42  1  0  0  0  0
 27 42  1  0  0  0  0
 27 43  4  0  0  0  0
 27 44  4  0  0  0  0
 28 35  1  0  0  0  0
 28 45  1  0  0  0  0
 28 65  2  0  0  0  0
 29 30  1  0  0  0  0
 29 31  1  0  0  0  0
 29 45  1  0  0  0  0
 30 55  1  0  0  0  0
 31 32  1  0  0  0  0
 32 33  1  0  0  0  0
 33 56  4  0  0  0  0
 33 57  4  0  0  0  0
 34 35  1  0  0  0  0
 35 40  1  0  0  0  0
 36 37  1  0  0  0  0
 36 40  1  0  0  0  0
 36 54  2  0  0  0  0
 37 38  1  0  0  0  0
 37 46  1  0  0  0  0
 38 39  1  0  0  0  0
M  END
$$$$
