complex
  PyMOL3.0          3D                             0

 14 14  0  0  0  0  0  0  0  0999 V2000
  186.2290  168.5630  236.4890 C   0  0  0  0  0  0  0  0  0  0  0  0
  187.6840  168.6330  236.7440 C   0  0  0  0  0  0  0  0  0  0  0  0
  189.5670  167.6060  237.8170 C   0  0  0  0  0  0  0  0  0  0  0  0
  189.7030  167.6150  239.3200 C   0  0  0  0  0  0  0  0  0  0  0  0
  191.7040  166.3970  239.2770 C   0  0  0  0  0  0  0  0  0  0  0  0
  193.0710  166.4880  239.8150 C   0  0  0  0  0  0  0  0  0  0  0  0
  191.6500  166.2960  237.7740 C   0  0  0  0  0  0  0  0  0  0  0  0
  190.2820  166.3840  237.2590 C   0  0  0  0  0  0  0  0  0  0  0  0
  188.2020  167.6750  237.4220 N   0  0  0  0  0  0  0  0  0  0  0  0
  188.3330  169.5640  236.3020 O   0  0  0  0  0  0  0  0  0  0  0  0
  191.0050  167.5970  239.7060 O   0  0  0  0  0  0  0  0  0  0  0  0
  193.1130  166.8680  241.1210 O   0  0  0  0  0  0  0  0  0  0  0  0
  192.2430  165.1060  237.3740 O   0  0  0  0  0  0  0  0  0  0  0  0
  190.2580  166.4370  235.8940 O   0  0  0  0  0  0  0  0  0  0  0  0
  1  2  1  0  0  0  0
  2  9  1  0  0  0  0
  2 10  2  0  0  0  0
  3  4  1  0  0  0  0
  3  8  1  0  0  0  0
  3  9  1  0  0  0  0
  4 11  1  0  0  0  0
  5  6  1  0  0  0  0
  5  7  1  0  0  0  0
  5 11  1  0  0  0  0
  6 12  1  0  0  0  0
  7  8  1  0  0  0  0
  7 13  1  0  0  0  0
  8 14  1  0  0  0  0
M  END
$$$$
