complex
  PyMOL3.0          3D                             0

 32 34  0  0  0  0  0  0  0  0999 V2000
  142.0710  105.1470  114.3210 P   0  0  0  0  0  0  0  0  0  0  0  0
  141.2760  105.1560  116.9960 P   0  0  0  0  0  0  0  0  0  0  0  0
  141.7060  103.2610  118.9300 P   0  0  0  0  0  0  0  0  0  0  0  0
  137.4410  106.9190  106.8050 C   0  0  0  0  0  0  0  0  0  0  0  0
  137.4420  108.8020  108.2840 C   0  0  0  0  0  0  0  0  0  0  0  0
  138.6090  106.7310  108.7740 C   0  0  0  0  0  0  0  0  0  0  0  0
  138.2670  107.9960  109.1430 C   0  0  0  0  0  0  0  0  0  0  0  0
  139.4460  107.1780  110.7190 C   0  0  0  0  0  0  0  0  0  0  0  0
  139.9320  104.9340  109.8110 C   0  0  0  0  0  0  0  0  0  0  0  0
  140.4200  103.3630  111.3850 C   0  0  0  0  0  0  0  0  0  0  0  0
  140.7040  103.5620  112.7980 C   0  0  0  0  0  0  0  0  0  0  0  0
  141.6420  103.6110  110.5460 C   0  0  0  0  0  0  0  0  0  0  0  0
  141.3760  104.9480  109.9670 C   0  0  0  0  0  0  0  0  0  0  0  0
  137.0310  106.3890  105.6580 N   0  0  0  0  0  0  0  0  0  0  0  0
  138.1740  106.1820  107.6010 N   0  0  0  0  0  0  0  0  0  0  0  0
  138.8150  108.2490  110.3810 N   0  0  0  0  0  0  0  0  0  0  0  0
  139.3520  106.2390  109.7810 N   0  0  0  0  0  0  0  0  0  0  0  0
  137.0640  108.1800  107.1120 N   0  0  0  0  0  0  0  0  0  0  0  0
  139.4090  104.2690  110.9460 O   0  0  0  0  0  0  0  0  0  0  0  0
  141.1250  104.1780  119.8780 O   0  0  0  0  0  0  0  0  0  0  0  0
  143.2090  103.3100  118.9470 O   0  5  0  0  0  0  0  0  0  0  0  0
  141.7660  102.6630  109.5340 O   0  0  0  0  0  0  0  0  0  0  0  0
  142.0400  105.1590  108.7980 O   0  0  0  0  0  0  0  0  0  0  0  0
  137.1000  109.9310  108.5410 O   0  0  0  0  0  0  0  0  0  0  0  0
  141.2380  104.8300  113.0330 O   0  0  0  0  0  0  0  0  0  0  0  0
  143.0790  104.0910  114.5470 O   0  5  0  0  0  0  0  0  0  0  0  0
  142.5850  106.5180  114.1640 O   0  0  0  0  0  0  0  0  0  0  0  0
  141.0320  105.0650  115.4930 O   0  0  0  0  0  0  0  0  0  0  0  0
  140.0820  105.8430  117.5690 O   0  5  0  0  0  0  0  0  0  0  0  0
  142.5470  105.8400  117.2290 O   0  0  0  0  0  0  0  0  0  0  0  0
  141.3080  103.7260  117.4940 O   0  0  0  0  0  0  0  0  0  0  0  0
  141.2300  101.8860  119.0580 O   0  0  0  0  0  0  0  0  0  0  0  0
  1 25  1  0  0  0  0
  1 26  1  0  0  0  0
  1 27  2  0  0  0  0
  1 28  1  0  0  0  0
  2 28  1  0  0  0  0
  2 29  1  0  0  0  0
  2 30  2  0  0  0  0
  2 31  1  0  0  0  0
  3 20  1  0  0  0  0
  3 21  1  0  0  0  0
  3 31  1  0  0  0  0
  3 32  2  0  0  0  0
  4 14  1  0  0  0  0
  4 15  4  0  0  0  0
  4 18  4  0  0  0  0
  5  7  4  0  0  0  0
  5 18  4  0  0  0  0
  5 24  2  0  0  0  0
  6  7  4  0  0  0  0
  6 15  4  0  0  0  0
  6 17  4  0  0  0  0
  7 16  4  0  0  0  0
  8 16  4  0  0  0  0
  8 17  4  0  0  0  0
  9 13  1  0  0  0  0
  9 17  1  0  0  0  0
  9 19  1  0  0  0  0
 10 11  1  0  0  0  0
 10 12  1  0  0  0  0
 10 19  1  0  0  0  0
 11 25  1  0  0  0  0
 12 13  1  0  0  0  0
 12 22  1  0  0  0  0
 13 23  1  0  0  0  0
M  END
$$$$
