complex
  PyMOL3.0          3D                             0

 43 42  0  0  0  0  0  0  0  0999 V2000
   16.7110   -0.5920   63.0120 C   0  0  0  0  0  0  0  0  0  0  0  0
   17.9330    2.8190   57.4100 C   0  0  0  0  0  0  0  0  0  0  0  0
   20.4120    2.7940   57.2190 C   0  0  0  0  0  0  0  0  0  0  0  0
   22.6890    3.1890   56.3970 C   0  0  0  0  0  0  0  0  0  0  0  0
   22.8800    4.5350   55.7080 C   0  0  0  0  0  0  0  0  0  0  0  0
   23.5660    2.1380   55.8370 C   0  0  0  0  0  0  0  0  0  0  0  0
   24.0360    0.6600   53.8770 C   0  0  0  0  0  0  0  0  0  0  0  0
   25.5230    0.7610   54.0170 C   0  0  0  0  0  0  0  0  0  0  0  0
   23.4430   -0.5880   54.4850 C   0  0  0  0  0  0  0  0  0  0  0  0
   23.7950   -2.8350   55.4230 C   0  0  0  0  0  0  0  0  0  0  0  0
   23.7450   -2.4980   56.8980 C   0  0  0  0  0  0  0  0  0  0  0  0
   17.8810   -0.3500   62.1410 C   0  0  0  0  0  0  0  0  0  0  0  0
   24.0210   -3.2640   59.1920 C   0  0  0  0  0  0  0  0  0  0  0  0
   25.4020   -3.0910   59.7490 C   0  0  0  0  0  0  0  0  0  0  0  0
   18.6670   -1.6260   61.8770 C   0  0  0  0  0  0  0  0  0  0  0  0
   19.5070   -1.5450   60.6060 C   0  0  0  0  0  0  0  0  0  0  0  0
   19.4900   -1.5930   58.1550 C   0  0  0  0  0  0  0  0  0  0  0  0
   18.6990   -2.8220   57.5610 C   0  0  0  0  0  0  0  0  0  0  0  0
   17.1850   -2.7470   57.7650 C   0  0  0  0  0  0  0  0  0  0  0  0
   19.3530   -0.3650   57.2250 C   0  0  0  0  0  0  0  0  0  0  0  0
   19.1280    2.0420   56.9820 C   0  0  0  0  0  0  0  0  0  0  0  0
   16.2850    0.4240   63.7200 N   0  0  0  0  0  0  0  0  0  0  0  0
   19.5130   -1.8890   63.0530 N   0  0  0  0  0  0  0  0  0  0  0  0
   18.8700   -1.3840   59.4560 N   0  0  0  0  0  0  0  0  0  0  0  0
   19.1960    0.7930   57.7720 N   0  0  0  0  0  0  0  0  0  0  0  0
   21.3010    2.7670   56.1970 N   0  0  0  0  0  0  0  0  0  0  0  0
   23.3600    1.7760   54.5470 N   0  0  0  0  0  0  0  0  0  0  0  0
   24.2370   -1.6690   54.6900 N   0  0  0  0  0  0  0  0  0  0  0  0
   24.0520   -3.4940   57.7560 N   0  0  0  0  0  0  0  0  0  0  0  0
   16.1220   -1.6550   63.0220 O   0  0  0  0  0  0  0  0  0  0  0  0
   23.4280   -1.3920   57.2830 O   0  0  0  0  0  0  0  0  0  0  0  0
   26.3680   -3.2640   58.9750 O   0  0  0  0  0  0  0  0  0  0  0  0
   25.5240   -2.7180   60.9420 O   0  0  0  0  0  0  0  0  0  0  0  0
   20.7230   -1.5860   60.6690 O   0  0  0  0  0  0  0  0  0  0  0  0
   16.6480   -3.4000   58.7160 O   0  0  0  0  0  0  0  0  0  0  0  0
   16.5020   -1.9810   57.0630 O   0  0  0  0  0  0  0  0  0  0  0  0
   19.4180   -0.4290   56.0180 O   0  0  0  0  0  0  0  0  0  0  0  0
   20.6650    3.3040   58.2580 O   0  0  0  0  0  0  0  0  0  0  0  0
   22.1320    4.6580   54.5470 O   0  0  0  0  0  0  0  0  0  0  0  0
   24.4290    1.5780   56.5060 O   0  0  0  0  0  0  0  0  0  0  0  0
   22.2600   -0.5970   54.7650 O   0  0  0  0  0  0  0  0  0  0  0  0
   16.5150    2.3230   56.5080 S   0  0  0  0  0  0  0  0  0  0  0  0
   26.1650    2.2770   53.3730 S   0  0  0  0  0  0  0  0  0  0  0  0
  1 12  1  0  0  0  0
  1 22  1  0  0  0  0
  1 30  2  0  0  0  0
  2 21  1  0  0  0  0
  2 42  1  0  0  0  0
  3 21  1  0  0  0  0
  3 26  1  0  0  0  0
  3 38  2  0  0  0  0
  4  5  1  0  0  0  0
  4  6  1  0  0  0  0
  4 26  1  0  0  0  0
  5 39  1  0  0  0  0
  6 27  1  0  0  0  0
  6 40  2  0  0  0  0
  7  8  1  0  0  0  0
  7  9  1  0  0  0  0
  7 27  1  0  0  0  0
  8 43  1  0  0  0  0
  9 28  1  0  0  0  0
  9 41  2  0  0  0  0
 10 11  1  0  0  0  0
 10 28  1  0  0  0  0
 11 29  1  0  0  0  0
 11 31  2  0  0  0  0
 12 15  1  0  0  0  0
 13 14  1  0  0  0  0
 13 29  1  0  0  0  0
 14 32  4  0  0  0  0
 14 33  4  0  0  0  0
 15 16  1  0  0  0  0
 15 23  1  0  0  0  0
 16 24  1  0  0  0  0
 16 34  2  0  0  0  0
 17 18  1  0  0  0  0
 17 20  1  0  0  0  0
 17 24  1  0  0  0  0
 18 19  1  0  0  0  0
 19 35  4  0  0  0  0
 19 36  4  0  0  0  0
 20 25  1  0  0  0  0
 20 37  2  0  0  0  0
 21 25  1  0  0  0  0
M  END
$$$$
