complex
  PyMOL3.0          3D                             0

 34 33  0  0  0  0  0  0  0  0999 V2000
   30.5450   17.0200   20.0870 C   0  0  0  0  0  0  0  0  0  0  0  0
   36.4710    7.2460   19.0790 C   0  0  0  0  0  0  0  0  0  0  0  0
   35.3720    6.2720   19.4570 C   0  0  0  0  0  0  0  0  0  0  0  0
   34.4170    6.0280   18.3620 C   0  0  0  0  0  0  0  0  0  0  0  0
   35.2380    4.4700   16.7490 C   0  0  0  0  0  0  0  0  0  0  0  0
   37.6530    9.5480   17.5230 C   0  0  0  0  0  0  0  0  0  0  0  0
   39.1450    9.4580   17.2180 C   0  0  0  0  0  0  0  0  0  0  0  0
   39.4610   10.4890   16.2610 C   0  0  0  0  0  0  0  0  0  0  0  0
   40.3340    7.3840   16.9940 C   0  0  0  0  0  0  0  0  0  0  0  0
   40.4090    5.9450   16.5190 C   0  0  0  0  0  0  0  0  0  0  0  0
   39.9470    5.1020   17.6820 C   0  0  0  0  0  0  0  0  0  0  0  0
   31.1060   15.8150   19.4760 C   0  0  0  0  0  0  0  0  0  0  0  0
   33.1140    9.1070   22.3160 C   0  0  0  0  0  0  0  0  0  0  0  0
   31.5060   13.5340   19.5280 C   0  0  0  0  0  0  0  0  0  0  0  0
   31.2620   12.4170   20.4000 C   0  0  0  0  0  0  0  0  0  0  0  0
   32.3580   11.3920   20.3390 C   0  0  0  0  0  0  0  0  0  0  0  0
   33.1740   11.4740   21.5720 C   0  0  0  0  0  0  0  0  0  0  0  0
   33.9750   10.2160   21.7650 C   0  0  0  0  0  0  0  0  0  0  0  0
   35.6570    9.1130   20.4670 C   0  0  0  0  0  0  0  0  0  0  0  0
   36.1130    8.7250   19.1040 C   0  0  0  0  0  0  0  0  0  0  0  0
   31.0140   14.7280   20.1060 N   0  0  0  0  0  0  0  0  0  0  0  0
   34.4840    9.7970   20.4940 N   0  0  0  0  0  0  0  0  0  0  0  0
   35.1390    5.7560   17.1590 N   0  0  0  0  0  0  0  0  0  0  0  0
   35.9920    4.2540   15.6740 N   0  0  0  0  0  0  0  0  0  0  0  0
   34.6590    3.5000   17.3380 N   0  0  0  0  0  0  0  0  0  0  0  0
   37.2900    9.5230   18.7590 N   0  0  0  0  0  0  0  0  0  0  0  0
   39.3250    8.1380   16.6360 N   0  0  0  0  0  0  0  0  0  0  0  0
   41.7150    5.5840   16.1700 N   0  0  0  0  0  0  0  0  0  0  0  0
   31.6460   15.8450   18.4010 O   0  0  0  0  0  0  0  0  0  0  0  0
   36.2790    8.8380   21.4340 O   0  0  0  0  0  0  0  0  0  0  0  0
   36.8260    9.6540   16.6720 O   0  0  0  0  0  0  0  0  0  0  0  0
   41.2130    7.7690   17.7410 O   0  0  0  0  0  0  0  0  0  0  0  0
   32.7850    9.1610   23.5250 O   0  0  0  0  0  0  0  0  0  0  0  0
   32.7300    8.2350   21.5410 O   0  0  0  0  0  0  0  0  0  0  0  0
  1 12  1  0  0  0  0
  2  3  1  0  0  0  0
  2 20  1  0  0  0  0
  3  4  1  0  0  0  0
  4 23  1  0  0  0  0
  5 23  1  0  0  0  0
  5 24  4  0  0  0  0
  5 25  4  0  0  0  0
  6  7  1  0  0  0  0
  6 26  1  0  0  0  0
  6 31  2  0  0  0  0
  7  8  1  0  0  0  0
  7 27  1  0  0  0  0
  9 10  1  0  0  0  0
  9 27  1  0  0  0  0
  9 32  2  0  0  0  0
 10 11  1  0  0  0  0
 10 28  1  0  0  0  0
 12 21  1  0  0  0  0
 12 29  2  0  0  0  0
 13 18  1  0  0  0  0
 13 33  4  0  0  0  0
 13 34  4  0  0  0  0
 14 15  1  0  0  0  0
 14 21  1  0  0  0  0
 15 16  1  0  0  0  0
 16 17  1  0  0  0  0
 17 18  1  0  0  0  0
 18 22  1  0  0  0  0
 19 20  1  0  0  0  0
 19 22  1  0  0  0  0
 19 30  2  0  0  0  0
 20 26  1  0  0  0  0
M  END
$$$$
