complex
  PyMOL3.0          3D                             0

 94100  0  0  0  0  0  0  0  0999 V2000
  -23.6070  -10.8300  -13.5700 C   0  0  0  0  0  0  0  0  0  0  0  0
  -24.1720  -16.0750   -8.5250 C   0  0  0  0  0  0  0  0  0  0  0  0
  -24.0430  -17.3360   -7.9660 C   0  0  0  0  0  0  0  0  0  0  0  0
  -25.1880  -18.0630   -7.7160 C   0  0  0  0  0  0  0  0  0  0  0  0
  -26.4020  -17.5580   -8.0550 C   0  0  0  0  0  0  0  0  0  0  0  0
  -26.5140  -16.2910   -8.6350 C   0  0  0  0  0  0  0  0  0  0  0  0
  -26.8510  -15.3850  -12.7320 C   0  0  0  0  0  0  0  0  0  0  0  0
  -27.6100  -16.5900  -13.0970 C   0  0  0  0  0  0  0  0  0  0  0  0
  -26.8650  -17.4530  -14.1050 C   0  0  0  0  0  0  0  0  0  0  0  0
  -26.0410  -18.5040  -13.4120 C   0  0  0  0  0  0  0  0  0  0  0  0
  -26.6200  -19.6770  -13.0090 C   0  0  0  0  0  0  0  0  0  0  0  0
  -22.1180  -11.0590  -13.5640 C   0  0  0  0  0  0  0  0  0  0  0  0
  -25.9110  -20.6110  -12.3020 C   0  0  0  0  0  0  0  0  0  0  0  0
  -24.5890  -20.3660  -11.9940 C   0  0  0  0  0  0  0  0  0  0  0  0
  -23.9900  -19.1970  -12.4020 C   0  0  0  0  0  0  0  0  0  0  0  0
  -24.7010  -18.2640  -13.1130 C   0  0  0  0  0  0  0  0  0  0  0  0
  -29.9250  -15.7110  -12.7340 C   0  0  0  0  0  0  0  0  0  0  0  0
  -31.2740  -15.2410  -13.2770 C   0  0  0  0  0  0  0  0  0  0  0  0
  -32.3280  -15.6030  -12.2150 C   0  0  0  0  0  0  0  0  0  0  0  0
  -33.3080  -16.5450  -12.7360 C   0  0  0  0  0  0  0  0  0  0  0  0
  -34.4410  -16.0710  -13.4100 C   0  0  0  0  0  0  0  0  0  0  0  0
  -35.3220  -16.9380  -13.9340 C   0  0  0  0  0  0  0  0  0  0  0  0
  -21.4310   -9.7940  -13.9620 C   0  0  0  0  0  0  0  0  0  0  0  0
  -35.1220  -18.3280  -13.7970 C   0  0  0  0  0  0  0  0  0  0  0  0
  -34.0200  -18.8030  -13.1280 C   0  0  0  0  0  0  0  0  0  0  0  0
  -33.1000  -17.9480  -12.5890 C   0  0  0  0  0  0  0  0  0  0  0  0
  -31.2360  -15.4190  -15.6920 C   0  0  0  0  0  0  0  0  0  0  0  0
  -31.9650  -15.9840  -16.8670 C   0  0  0  0  0  0  0  0  0  0  0  0
  -31.1100  -16.9680  -17.6670 C   0  0  0  0  0  0  0  0  0  0  0  0
  -31.9990  -17.5940  -18.6930 C   0  0  0  0  0  0  0  0  0  0  0  0
  -32.7910  -18.6630  -18.3170 C   0  0  0  0  0  0  0  0  0  0  0  0
  -33.6490  -19.2400  -19.2220 C   0  0  0  0  0  0  0  0  0  0  0  0
  -33.7430  -18.7460  -20.5020 C   0  0  0  0  0  0  0  0  0  0  0  0
  -21.6840  -11.5370  -12.2180 C   0  0  0  0  0  0  0  0  0  0  0  0
  -32.9620  -17.6730  -20.8770 C   0  0  0  0  0  0  0  0  0  0  0  0
  -32.0900  -17.1020  -19.9620 C   0  0  0  0  0  0  0  0  0  0  0  0
  -33.4270  -14.2010  -17.4260 C   0  0  0  0  0  0  0  0  0  0  0  0
  -33.8390  -13.1140  -18.3570 C   0  0  0  0  0  0  0  0  0  0  0  0
  -33.1780  -11.7800  -17.9410 C   0  0  0  0  0  0  0  0  0  0  0  0
  -31.7990  -11.5460  -18.5090 C   0  0  0  0  0  0  0  0  0  0  0  0
  -30.8620  -10.7960  -17.8990 C   0  0  0  0  0  0  0  0  0  0  0  0
  -29.9690  -11.3780  -19.7430 C   0  0  0  0  0  0  0  0  0  0  0  0
  -29.1520  -11.5530  -20.7790 C   0  0  0  0  0  0  0  0  0  0  0  0
  -29.7030  -12.3730  -21.9230 C   0  0  0  0  0  0  0  0  0  0  0  0
  -22.0500  -12.9680  -11.9480 C   0  0  0  0  0  0  0  0  0  0  0  0
  -30.9720  -12.9580  -21.8950 C   0  0  0  0  0  0  0  0  0  0  0  0
  -31.8340  -12.7720  -20.8390 C   0  0  0  0  0  0  0  0  0  0  0  0
  -31.3620  -11.9730  -19.7910 C   0  0  0  0  0  0  0  0  0  0  0  0
  -36.1500  -13.4400  -19.3950 C   0  0  0  0  0  0  0  0  0  0  0  0
  -37.5750  -13.0360  -19.3460 C   0  0  0  0  0  0  0  0  0  0  0  0
  -38.4180  -14.1340  -19.9820 C   0  0  0  0  0  0  0  0  0  0  0  0
  -38.7350  -15.2270  -18.9940 C   0  0  0  0  0  0  0  0  0  0  0  0
  -37.5490  -16.1900  -18.9530 C   0  0  0  0  0  0  0  0  0  0  0  0
  -38.3240  -18.4420  -19.4420 C   0  0  0  0  0  0  0  0  0  0  0  0
  -36.9210  -10.8420  -20.2290 C   0  0  0  0  0  0  0  0  0  0  0  0
  -24.0450  -14.3470  -11.5410 C   0  0  0  0  0  0  0  0  0  0  0  0
  -37.2560   -9.4540  -20.6170 C   0  0  0  0  0  0  0  0  0  0  0  0
  -37.1480   -8.6060  -19.3240 C   0  0  0  0  0  0  0  0  0  0  0  0
  -38.5670   -8.4900  -18.7950 C   0  0  0  0  0  0  0  0  0  0  0  0
  -39.4280   -8.6210  -19.9810 C   0  0  0  0  0  0  0  0  0  0  0  0
  -39.0230   -9.5960  -22.2710 C   0  0  0  0  0  0  0  0  0  0  0  0
  -40.4430   -9.3230  -22.6570 C   0  0  0  0  0  0  0  0  0  0  0  0
  -41.3100  -10.5700  -22.4670 C   0  0  0  0  0  0  0  0  0  0  0  0
  -21.2010  -13.3860  -10.8580 C   0  0  0  0  0  0  0  0  0  0  0  0
  -25.4550  -14.2560  -11.0690 C   0  0  0  0  0  0  0  0  0  0  0  0
  -25.4920  -14.2110   -9.5020 C   0  0  0  0  0  0  0  0  0  0  0  0
  -25.3770  -15.5290   -8.8750 C   0  0  0  0  0  0  0  0  0  0  0  0
  -23.4230  -13.1520  -11.5610 N   0  0  0  0  0  0  0  0  0  0  0  0
  -38.8740  -19.2970  -20.2880 N   0  0  0  0  0  0  0  0  0  0  0  0
  -37.8510  -11.7490  -20.0280 N   0  0  0  0  0  0  0  0  0  0  0  0
  -38.6020   -9.2530  -21.0460 N   0  0  0  0  0  0  0  0  0  0  0  0
  -40.5020   -8.9130  -24.0320 N   0  0  0  0  0  0  0  0  0  0  0  0
  -26.2210  -15.3940  -11.5440 N   0  0  0  0  0  0  0  0  0  0  0  0
  -28.9240  -16.2160  -13.5370 N   0  0  0  0  0  0  0  0  0  0  0  0
  -31.5570  -15.9450  -14.5090 N   0  0  0  0  0  0  0  0  0  0  0  0
  -32.4060  -14.9340  -17.7540 N   0  0  0  0  0  0  0  0  0  0  0  0
  -29.7850  -10.7060  -18.6020 N   0  0  0  0  0  0  0  0  0  0  0  0
  -35.3910  -12.9270  -18.4550 N   0  0  0  0  0  0  0  0  0  0  0  0
  -37.7930  -17.2880  -19.9030 N   0  0  0  0  0  0  0  0  0  0  0  0
  -38.3070  -18.7100  -18.1940 N   0  0  0  0  0  0  0  0  0  0  0  0
  -23.5280  -15.3570  -11.9110 O   0  0  0  0  0  0  0  0  0  0  0  0
  -35.7570  -11.1490  -20.0710 O   0  0  0  0  0  0  0  0  0  0  0  0
  -38.2990  -10.1880  -23.0180 O   0  0  0  0  0  0  0  0  0  0  0  0
  -40.9950  -11.2590  -21.3950 O   0  0  0  0  0  0  0  0  0  0  0  0
  -21.6300  -13.3190   -9.6820 O   0  0  0  0  0  0  0  0  0  0  0  0
  -19.9990  -13.7190  -11.1650 O   0  0  0  0  0  0  0  0  0  0  0  0
  -25.0760  -19.2600   -7.1450 O   0  0  0  0  0  0  0  0  0  0  0  0
  -26.7500  -14.4530  -13.4560 O   0  0  0  0  0  0  0  0  0  0  0  0
  -23.8940  -21.2920  -11.3370 O   0  0  0  0  0  0  0  0  0  0  0  0
  -29.6620  -15.6790  -11.5850 O   0  0  0  0  0  0  0  0  0  0  0  0
  -30.4450  -14.5400  -15.7830 O   0  0  0  0  0  0  0  0  0  0  0  0
  -34.5920  -19.2630  -21.4090 O   0  0  0  0  0  0  0  0  0  0  0  0
  -34.0260  -14.3510  -16.3710 O   0  0  0  0  0  0  0  0  0  0  0  0
  -35.7130  -14.1780  -20.2510 O   0  0  0  0  0  0  0  0  0  0  0  0
  1 12  1  0  0  0  0
  2  3  4  0  0  0  0
  2 67  4  0  0  0  0
  3  4  4  0  0  0  0
  4  5  4  0  0  0  0
  4 87  1  0  0  0  0
  5  6  4  0  0  0  0
  6 67  4  0  0  0  0
  7  8  1  0  0  0  0
  7 73  1  0  0  0  0
  7 88  2  0  0  0  0
  8  9  1  0  0  0  0
  8 74  1  0  0  0  0
  9 10  1  0  0  0  0
 10 11  4  0  0  0  0
 10 16  4  0  0  0  0
 11 13  4  0  0  0  0
 12 23  1  0  0  0  0
 12 34  1  0  0  0  0
 13 14  4  0  0  0  0
 14 15  4  0  0  0  0
 14 89  1  0  0  0  0
 15 16  4  0  0  0  0
 17 18  1  0  0  0  0
 17 74  1  0  0  0  0
 17 90  2  0  0  0  0
 18 19  1  0  0  0  0
 18 75  1  0  0  0  0
 19 20  1  0  0  0  0
 20 21  4  0  0  0  0
 20 26  4  0  0  0  0
 21 22  4  0  0  0  0
 22 24  4  0  0  0  0
 24 25  4  0  0  0  0
 25 26  4  0  0  0  0
 27 28  1  0  0  0  0
 27 75  1  0  0  0  0
 27 91  2  0  0  0  0
 28 29  1  0  0  0  0
 28 76  1  0  0  0  0
 29 30  1  0  0  0  0
 30 31  4  0  0  0  0
 30 36  4  0  0  0  0
 31 32  4  0  0  0  0
 32 33  4  0  0  0  0
 33 35  4  0  0  0  0
 33 92  1  0  0  0  0
 34 45  1  0  0  0  0
 35 36  4  0  0  0  0
 37 38  1  0  0  0  0
 37 76  1  0  0  0  0
 37 93  2  0  0  0  0
 38 39  1  0  0  0  0
 38 78  1  0  0  0  0
 39 40  1  0  0  0  0
 40 41  4  0  0  0  0
 40 48  4  0  0  0  0
 41 77  4  0  0  0  0
 42 43  4  0  0  0  0
 42 48  4  0  0  0  0
 42 77  4  0  0  0  0
 43 44  4  0  0  0  0
 44 46  4  0  0  0  0
 45 64  1  0  0  0  0
 45 68  1  0  0  0  0
 46 47  4  0  0  0  0
 47 48  4  0  0  0  0
 49 50  1  0  0  0  0
 49 78  1  0  0  0  0
 49 94  2  0  0  0  0
 50 51  1  0  0  0  0
 50 70  1  0  0  0  0
 51 52  1  0  0  0  0
 52 53  1  0  0  0  0
 53 79  1  0  0  0  0
 54 69  4  0  0  0  0
 54 79  1  0  0  0  0
 54 80  4  0  0  0  0
 55 57  1  0  0  0  0
 55 70  1  0  0  0  0
 55 82  2  0  0  0  0
 56 65  1  0  0  0  0
 56 68  1  0  0  0  0
 56 81  2  0  0  0  0
 57 58  1  0  0  0  0
 57 71  1  0  0  0  0
 58 59  1  0  0  0  0
 59 60  1  0  0  0  0
 60 71  1  0  0  0  0
 61 62  1  0  0  0  0
 61 71  1  0  0  0  0
 61 83  2  0  0  0  0
 62 63  1  0  0  0  0
 62 72  1  0  0  0  0
 63 84  1  0  0  0  0
 64 85  4  0  0  0  0
 64 86  4  0  0  0  0
 65 66  1  0  0  0  0
 65 73  1  0  0  0  0
 66 67  1  0  0  0  0
M  END
$$$$
