complex
  PyMOL3.0          3D                             0

  6  5  0  0  0  0  0  0  0  0999 V2000
  -24.7920  -45.7020   42.7820 C   0  0  0  0  0  0  0  0  0  0  0  0
  -24.9620  -44.4340   43.5460 C   0  0  0  0  0  0  0  0  0  0  0  0
  -23.6780  -43.8840   43.9560 C   0  0  0  0  0  0  0  0  0  0  0  0
  -23.8840  -42.8770   45.0140 C   0  0  0  0  0  0  0  0  0  0  0  0
  -25.6450  -43.5390   42.7940 O   0  0  0  0  0  0  0  0  0  0  0  0
  -22.9980  -43.3250   42.9090 O   0  0  0  0  0  0  0  0  0  0  0  0
  1  2  1  0  0  0  0
  2  3  1  0  0  0  0
  2  5  1  0  0  0  0
  3  4  1  0  0  0  0
  3  6  1  0  0  0  0
M  END
$$$$
