complex
  PyMOL3.0          3D                             0

 16 16  0  0  0  0  0  0  0  0999 V2000
   45.3710   18.0810   62.6520 N   0  0  0  0  0  0  0  0  0  0  0  0
   44.7350   19.3030   62.1550 C   0  0  0  0  0  0  0  0  0  0  0  0
   45.8410   20.2720   61.7390 C   0  0  0  0  0  0  0  0  0  0  0  0
   46.2580   21.0930   62.5560 O   0  0  0  0  0  0  0  0  0  0  0  0
   43.8340   19.8570   63.2700 C   0  0  0  0  0  0  0  0  0  0  0  0
   42.8370   20.9470   62.9120 C   0  0  0  0  0  0  0  0  0  0  0  0
   42.9390   22.2200   63.4720 C   0  0  0  0  0  0  0  0  0  0  0  0
   41.7670   20.6970   62.0630 C   0  0  0  0  0  0  0  0  0  0  0  0
   42.0240   23.2180   63.1740 C   0  0  0  0  0  0  0  0  0  0  0  0
   40.8450   21.6920   61.7600 C   0  0  0  0  0  0  0  0  0  0  0  0
   40.9840   22.9560   62.3070 C   0  0  0  0  0  0  0  0  0  0  0  0
   40.1030   23.8860   62.0480 O   0  0  0  0  0  0  0  0  0  0  0  0
   40.2380   25.0720   60.9650 P   0  0  0  0  0  0  0  0  0  0  0  0
   39.3190   24.7400   59.7690 O   0  0  0  0  0  0  0  0  0  0  0  0
   41.7050   25.2560   60.5290 O   0  5  0  0  0  0  0  0  0  0  0  0
   39.7640   26.3250   61.5930 O   0  0  0  0  0  0  0  0  0  0  0  0
  1  2  1  0  0  0  0
  2  3  1  0  0  0  0
  2  5  1  0  0  0  0
  3  4  2  0  0  0  0
  5  6  1  0  0  0  0
  6  7  4  0  0  0  0
  6  8  4  0  0  0  0
  7  9  4  0  0  0  0
  8 10  4  0  0  0  0
  9 11  4  0  0  0  0
 10 11  4  0  0  0  0
 11 12  1  0  0  0  0
 12 13  1  0  0  0  0
 13 14  1  0  0  0  0
 13 15  1  0  0  0  0
 13 16  2  0  0  0  0
M  END
$$$$
