complex
  PyMOL3.0          3D                             0

  5  4  0  0  0  0  0  0  0  0999 V2000
    4.7630  -13.9470   10.5440 O   0  0  0  0  0  0  0  0  0  0  0  0
    4.1700  -15.5950   12.1510 O   0  0  0  0  0  0  0  0  0  0  0  0
    3.0420  -13.4840   12.1840 O   0  5  0  0  0  0  0  0  0  0  0  0
    5.3240  -13.6060   12.8480 O   0  0  0  0  0  0  0  0  0  0  0  0
    4.3220  -14.1550   11.9280 S   0  0  0  0  0  0  0  0  0  0  0  0
  1  5  1  0  0  0  0
  2  5  1  0  0  0  0
  3  5  1  0  0  0  0
  4  5  2  0  0  0  0
M  END
$$$$
