complex
  PyMOL3.0          3D                             0

  5  4  0  0  0  0  0  0  0  0999 V2000
  -21.1320  -43.9830   27.4970 O   0  0  0  0  0  0  0  0  0  0  0  0
  -20.3360  -42.1890   28.8200 O   0  0  0  0  0  0  0  0  0  0  0  0
  -21.0470  -44.1930   29.8810 O   0  5  0  0  0  0  0  0  0  0  0  0
  -22.6650  -42.7640   28.8690 O   0  0  0  0  0  0  0  0  0  0  0  0
  -21.2990  -43.2830   28.7670 S   0  0  0  0  0  0  0  0  0  0  0  0
  1  5  1  0  0  0  0
  2  5  1  0  0  0  0
  3  5  1  0  0  0  0
  4  5  2  0  0  0  0
M  END
$$$$
