complex
  PyMOL3.0          3D                             0

  5  4  0  0  0  0  0  0  0  0999 V2000
   58.5430   51.2710   90.9380 O   0  0  0  0  0  0  0  0  0  0  0  0
   57.2740   53.1830   91.6040 O   0  0  0  0  0  0  0  0  0  0  0  0
   57.3560   51.2630   93.0020 O   0  5  0  0  0  0  0  0  0  0  0  0
   59.3000   52.6300   92.7530 O   0  0  0  0  0  0  0  0  0  0  0  0
   58.1230   52.0890   92.0740 S   0  0  0  0  0  0  0  0  0  0  0  0
  1  5  1  0  0  0  0
  2  5  1  0  0  0  0
  3  5  1  0  0  0  0
  4  5  2  0  0  0  0
M  END
$$$$
