complex
  PyMOL3.0          3D                             0

 32 34  0  0  0  0  0  0  0  0999 V2000
  142.4170  104.4410  113.2910 P   0  0  0  0  0  0  0  0  0  0  0  0
  142.7810  103.7300  116.1030 P   0  0  0  0  0  0  0  0  0  0  0  0
  140.8290  103.9910  118.3090 P   0  0  0  0  0  0  0  0  0  0  0  0
  140.5040  102.9390  112.3140 C   0  0  0  0  0  0  0  0  0  0  0  0
  140.9520  104.2690  112.6670 O   0  0  0  0  0  0  0  0  0  0  0  0
  140.5570  102.7710  110.8160 C   0  0  0  0  0  0  0  0  0  0  0  0
  139.2980  103.1980  110.2370 O   0  0  0  0  0  0  0  0  0  0  0  0
  141.6070  103.6030  110.0710 C   0  0  0  0  0  0  0  0  0  0  0  0
  142.8850  102.9820  110.1020 O   0  0  0  0  0  0  0  0  0  0  0  0
  141.0100  103.6450  108.6630 C   0  0  0  0  0  0  0  0  0  0  0  0
  141.2840  102.4820  107.9110 O   0  0  0  0  0  0  0  0  0  0  0  0
  139.5190  103.7710  108.9660 C   0  0  0  0  0  0  0  0  0  0  0  0
  136.7420  107.3440  106.6250 N   0  0  0  0  0  0  0  0  0  0  0  0
  142.9740  105.7620  112.8790 O   0  5  0  0  0  0  0  0  0  0  0  0
  142.3900  102.2920  116.0430 O   0  5  0  0  0  0  0  0  0  0  0  0
  139.6170  104.6150  117.6740 O   0  0  0  0  0  0  0  0  0  0  0  0
  136.9680  106.0430  106.2460 C   0  0  0  0  0  0  0  0  0  0  0  0
  136.3850  105.6400  105.1090 N   0  0  0  0  0  0  0  0  0  0  0  0
  143.2200  103.2190  112.9960 O   0  0  0  0  0  0  0  0  0  0  0  0
  144.2260  104.1000  116.1440 O   0  0  0  0  0  0  0  0  0  0  0  0
  141.1220  104.5510  119.6770 O   0  5  0  0  0  0  0  0  0  0  0  0
  137.7210  105.1930  106.9450 N   0  0  0  0  0  0  0  0  0  0  0  0
  142.0970  104.4820  114.8640 O   0  0  0  0  0  0  0  0  0  0  0  0
  142.0620  104.4150  117.3590 O   0  0  0  0  0  0  0  0  0  0  0  0
  140.7760  102.4880  118.3030 O   0  0  0  0  0  0  0  0  0  0  0  0
  138.2310  105.7620  108.0640 C   0  0  0  0  0  0  0  0  0  0  0  0
  138.0580  107.0510  108.5160 C   0  0  0  0  0  0  0  0  0  0  0  0
  137.2590  107.9510  107.7700 C   0  0  0  0  0  0  0  0  0  0  0  0
  136.9970  109.1340  108.0260 O   0  0  0  0  0  0  0  0  0  0  0  0
  138.7470  107.2490  109.7060 N   0  0  0  0  0  0  0  0  0  0  0  0
  139.3130  106.0930  109.9460 C   0  0  0  0  0  0  0  0  0  0  0  0
  139.0420  105.1480  108.9890 N   0  0  0  0  0  0  0  0  0  0  0  0
  1  5  1  0  0  0  0
  1 14  1  0  0  0  0
  1 19  2  0  0  0  0
  1 23  1  0  0  0  0
  2 15  1  0  0  0  0
  2 20  2  0  0  0  0
  2 23  1  0  0  0  0
  2 24  1  0  0  0  0
  3 16  1  0  0  0  0
  3 21  1  0  0  0  0
  3 24  1  0  0  0  0
  3 25  2  0  0  0  0
  4  5  1  0  0  0  0
  4  6  1  0  0  0  0
  6  7  1  0  0  0  0
  6  8  1  0  0  0  0
  7 12  1  0  0  0  0
  8  9  1  0  0  0  0
  8 10  1  0  0  0  0
 10 11  1  0  0  0  0
 10 12  1  0  0  0  0
 12 32  1  0  0  0  0
 13 17  4  0  0  0  0
 13 28  4  0  0  0  0
 17 18  1  0  0  0  0
 17 22  4  0  0  0  0
 22 26  4  0  0  0  0
 26 27  4  0  0  0  0
 26 32  4  0  0  0  0
 27 28  4  0  0  0  0
 27 30  4  0  0  0  0
 28 29  2  0  0  0  0
 30 31  4  0  0  0  0
 31 32  4  0  0  0  0
M  END
$$$$
