complex
  PyMOL3.0          3D                             0

 12 12  0  0  0  0  0  0  0  0999 V2000
  -61.1730  -25.1230  -81.3570 C   0  0  0  0  0  0  0  0  0  0  0  0
  -61.7320  -25.6590  -82.5500 O   0  0  0  0  0  0  0  0  0  0  0  0
  -60.9460  -23.6250  -81.5600 C   0  0  0  0  0  0  0  0  0  0  0  0
  -62.2180  -23.0840  -81.9540 O   0  0  0  0  0  0  0  0  0  0  0  0
  -59.8070  -23.4050  -82.5900 C   0  0  0  0  0  0  0  0  0  0  0  0
  -59.4120  -22.0500  -82.8460 O   0  0  0  0  0  0  0  0  0  0  0  0
  -58.5520  -24.1630  -82.1610 C   0  0  0  0  0  0  0  0  0  0  0  0
  -57.4810  -23.9150  -83.1150 O   0  0  0  0  0  0  0  0  0  0  0  0
  -58.9160  -25.6470  -82.0750 C   0  0  0  0  0  0  0  0  0  0  0  0
  -59.9370  -25.8050  -81.0710 O   0  0  0  0  0  0  0  0  0  0  0  0
  -57.6930  -26.5420  -81.8220 C   0  0  0  0  0  0  0  0  0  0  0  0
  -57.9590  -27.9000  -82.1870 O   0  0  0  0  0  0  0  0  0  0  0  0
  1  2  1  0  0  0  0
  1  3  1  0  0  0  0
  1 10  1  0  0  0  0
  3  4  1  0  0  0  0
  3  5  1  0  0  0  0
  5  6  1  0  0  0  0
  5  7  1  0  0  0  0
  7  8  1  0  0  0  0
  7  9  1  0  0  0  0
  9 10  1  0  0  0  0
  9 11  1  0  0  0  0
 11 12  1  0  0  0  0
M  END
$$$$
