complex
  PyMOL3.0          3D                             0

 18 18  0  0  0  0  0  0  0  0999 V2000
  -75.5120  -46.8690  -28.1960 C   0  0  0  0  0  0  0  0  0  0  0  0
  -74.9560  -46.6990  -26.9400 C   0  0  0  0  0  0  0  0  0  0  0  0
  -75.5150  -45.7940  -26.0220 C   0  0  0  0  0  0  0  0  0  0  0  0
  -76.6700  -45.0880  -26.3920 C   0  0  0  0  0  0  0  0  0  0  0  0
  -77.2220  -45.2450  -27.6590 C   0  0  0  0  0  0  0  0  0  0  0  0
  -76.6400  -46.1270  -28.5900 C   0  0  0  0  0  0  0  0  0  0  0  0
  -77.1410  -46.2370  -30.0030 C   0  0  0  0  0  0  0  0  0  0  0  0
  -76.4110  -46.7170  -30.8870 O   0  0  0  0  0  0  0  0  0  0  0  0
  -78.3540  -45.7970  -30.2220 O   0  0  0  0  0  0  0  0  0  0  0  0
  -74.8230  -45.5220  -24.7170 C   0  0  0  0  0  0  0  0  0  0  0  0
  -75.3640  -44.5430  -23.9730 O   0  0  0  0  0  0  0  0  0  0  0  0
  -73.7830  -46.1660  -24.3710 O   0  0  0  0  0  0  0  0  0  0  0  0
  -78.6170  -45.8990  -31.1750 H   0  0  0  0  0  0  0  0  0  0  0  0
  -74.8500  -44.3990  -23.1340 H   0  0  0  0  0  0  0  0  0  0  0  0
  -75.0710  -47.5910  -28.8810 H   0  0  0  0  0  0  0  0  0  0  0  0
  -74.0780  -47.2790  -26.6670 H   0  0  0  0  0  0  0  0  0  0  0  0
  -77.1580  -44.4060  -25.7000 H   0  0  0  0  0  0  0  0  0  0  0  0
  -78.1110  -44.6680  -27.9080 H   0  0  0  0  0  0  0  0  0  0  0  0
  1  2  4  0  0  0  0
  1  6  4  0  0  0  0
  1 15  1  0  0  0  0
  2  3  4  0  0  0  0
  2 16  1  0  0  0  0
  3  4  4  0  0  0  0
  3 10  1  0  0  0  0
  4  5  4  0  0  0  0
  4 17  1  0  0  0  0
  5  6  4  0  0  0  0
  5 18  1  0  0  0  0
  6  7  1  0  0  0  0
  7  8  2  0  0  0  0
  7  9  1  0  0  0  0
  9 13  1  0  0  0  0
 10 11  1  0  0  0  0
 10 12  2  0  0  0  0
 11 14  1  0  0  0  0
M  END
$$$$
