complex
  PyMOL3.0          3D                             0

  5  4  0  0  0  0  0  0  0  0999 V2000
    3.6830   -2.7900    7.9550 O   0  0  0  0  0  0  0  0  0  0  0  0
    3.0750   -4.6000    9.3220 O   0  0  0  0  0  0  0  0  0  0  0  0
    1.8020   -2.6260    9.3500 O   0  5  0  0  0  0  0  0  0  0  0  0
    3.9570   -2.6470   10.2830 O   0  0  0  0  0  0  0  0  0  0  0  0
    3.1290   -3.1660    9.2280 S   0  0  0  0  0  0  0  0  0  0  0  0
  1  5  1  0  0  0  0
  2  5  1  0  0  0  0
  3  5  1  0  0  0  0
  4  5  2  0  0  0  0
M  END
$$$$
