complex
  PyMOL3.0          3D                             0

  8  7  0  0  0  0  0  0  0  0999 V2000
  -62.5550   -2.6490    6.0510 N   0  0  0  0  0  0  0  0  0  0  0  0
  -62.9070   -3.8090    5.2160 C   0  0  0  0  0  0  0  0  0  0  0  0
  -62.4240   -5.1170    5.8550 C   0  0  0  0  0  0  0  0  0  0  0  0
  -63.1800   -6.1030    5.8720 O   0  0  0  0  0  0  0  0  0  0  0  0
  -62.2950   -3.6210    3.8300 C   0  0  0  0  0  0  0  0  0  0  0  0
  -62.6540   -4.7200    2.9220 C   0  0  0  0  0  0  0  0  0  0  0  0
  -61.5890   -6.0060    0.3550 C   0  0  0  0  0  0  0  0  0  0  0  0
  -62.0750   -4.2470    1.1000 Se  0  0  0  0  0  0  0  0  0  0  0  0
  1  2  1  0  0  0  0
  2  3  1  0  0  0  0
  2  5  1  0  0  0  0
  3  4  2  0  0  0  0
  5  6  1  0  0  0  0
  6  8  1  0  0  0  0
  7  8  1  0  0  0  0
M  END
$$$$
