complex
  PyMOL3.0          3D                             0

 31 34  0  0  0  0  0  0  0  0999 V2000
  -44.3040    8.3970   50.7760 Cl  0  0  0  0  0  0  0  0  0  0  0  0
  -44.4330    8.5300   48.0340 C   0  0  0  0  0  0  0  0  0  0  0  0
  -44.4700    9.2440   49.2150 C   0  0  0  0  0  0  0  0  0  0  0  0
  -44.6410   10.6440   49.1550 C   0  0  0  0  0  0  0  0  0  0  0  0
  -44.7800   11.3460   47.9240 C   0  0  0  0  0  0  0  0  0  0  0  0
  -44.9460   12.7890   47.8610 N   0  0  0  0  0  0  0  0  0  0  0  0
  -45.5870   13.7330   48.7310 C   0  0  0  0  0  0  0  0  0  0  0  0
  -45.0820   13.8990   49.9590 N   0  0  0  0  0  0  0  0  0  0  0  0
  -45.7020   14.8180   50.8020 C   0  0  0  0  0  0  0  0  0  0  0  0
  -46.7710   15.5840   50.5120 N   0  0  0  0  0  0  0  0  0  0  0  0
  -47.3360   15.4470   49.2290 C   0  0  0  0  0  0  0  0  0  0  0  0
  -46.7690   14.5300   48.3070 C   0  0  0  0  0  0  0  0  0  0  0  0
  -47.3870   14.4450   47.0340 C   0  0  0  0  0  0  0  0  0  0  0  0
  -48.4910   15.1770   46.6210 C   0  0  0  0  0  0  0  0  0  0  0  0
  -49.0140   15.0110   45.3570 O   0  0  0  0  0  0  0  0  0  0  0  0
  -49.7310   13.8270   45.0550 C   0  0  0  0  0  0  0  0  0  0  0  0
  -48.7410   12.6380   44.6680 C   0  0  0  0  0  0  0  0  0  0  0  0
  -47.5010   13.1420   44.2500 O   0  0  0  0  0  0  0  0  0  0  0  0
  -47.3420   13.1350   42.8660 C   0  0  0  0  0  0  0  0  0  0  0  0
  -47.6920   11.7190   42.2960 C   0  0  0  0  0  0  0  0  0  0  0  0
  -46.9130   10.7360   43.0150 O   0  0  0  0  0  0  0  0  0  0  0  0
  -45.5160   10.9570   43.0450 C   0  0  0  0  0  0  0  0  0  0  0  0
  -44.8890   10.3240   44.3370 C   0  0  0  0  0  0  0  0  0  0  0  0
  -44.8560   11.1740   45.4820 O   0  0  0  0  0  0  0  0  0  0  0  0
  -44.7320   10.5530   46.7200 C   0  0  0  0  0  0  0  0  0  0  0  0
  -44.5610    9.1640   46.7880 C   0  0  0  0  0  0  0  0  0  0  0  0
  -49.1010   16.1130   47.5570 C   0  0  0  0  0  0  0  0  0  0  0  0
  -50.2120   16.8530   47.1220 O   0  0  0  0  0  0  0  0  0  0  0  0
  -50.0510   17.8490   46.1000 C   0  0  0  0  0  0  0  0  0  0  0  0
  -48.5060   16.2510   48.8240 C   0  0  0  0  0  0  0  0  0  0  0  0
  -44.2660    7.1770   48.0580 F   0  0  0  0  0  0  0  0  0  0  0  0
  1  3  1  0  0  0  0
  2  3  4  0  0  0  0
  2 26  4  0  0  0  0
  2 31  1  0  0  0  0
  3  4  4  0  0  0  0
  4  5  4  0  0  0  0
  5  6  1  0  0  0  0
  5 25  4  0  0  0  0
  6  7  1  0  0  0  0
  7  8  4  0  0  0  0
  7 12  4  0  0  0  0
  8  9  4  0  0  0  0
  9 10  4  0  0  0  0
 10 11  4  0  0  0  0
 11 12  4  0  0  0  0
 11 30  4  0  0  0  0
 12 13  4  0  0  0  0
 13 14  4  0  0  0  0
 14 15  1  0  0  0  0
 14 27  4  0  0  0  0
 15 16  1  0  0  0  0
 16 17  1  0  0  0  0
 17 18  1  0  0  0  0
 18 19  1  0  0  0  0
 19 20  1  0  0  0  0
 20 21  1  0  0  0  0
 21 22  1  0  0  0  0
 22 23  1  0  0  0  0
 23 24  1  0  0  0  0
 24 25  1  0  0  0  0
 25 26  4  0  0  0  0
 27 28  1  0  0  0  0
 27 30  4  0  0  0  0
 28 29  1  0  0  0  0
M  END
$$$$
