complex
  PyMOL3.0          3D                             0

 37 40  0  0  0  0  0  0  0  0999 V2000
   29.7200  -19.1000    5.8330 C   0  0  0  0  0  0  0  0  0  0  0  0
   30.8920  -18.2980    5.5610 N   0  0  0  0  0  0  0  0  0  0  0  0
   32.1660  -18.7790    5.4350 C   0  0  0  0  0  0  0  0  0  0  0  0
   32.9800  -17.6950    5.1780 C   0  0  0  0  0  0  0  0  0  0  0  0
   34.3370  -17.9120    5.0060 C   0  0  0  0  0  0  0  0  0  0  0  0
   34.8480  -19.1880    5.0910 C   0  0  0  0  0  0  0  0  0  0  0  0
   34.0140  -20.2510    5.3490 C   0  0  0  0  0  0  0  0  0  0  0  0
   32.6610  -20.0610    5.5250 C   0  0  0  0  0  0  0  0  0  0  0  0
   30.8620  -16.9460    5.3950 C   0  0  0  0  0  0  0  0  0  0  0  0
   32.1550  -16.5380    5.1520 C   0  0  0  0  0  0  0  0  0  0  0  0
   32.5240  -15.1670    4.9330 C   0  0  0  0  0  0  0  0  0  0  0  0
   33.8220  -14.9250    5.1300 N   0  0  0  0  0  0  0  0  0  0  0  0
   34.2600  -13.6790    4.9540 C   0  0  0  0  0  0  0  0  0  0  0  0
   35.6190  -13.3870    5.1550 N   0  0  0  0  0  0  0  0  0  0  0  0
   36.6680  -14.2540    5.5430 C   0  0  0  0  0  0  0  0  0  0  0  0
   37.8960  -14.0350    4.9750 C   0  0  0  0  0  0  0  0  0  0  0  0
   38.0120  -13.0120    4.0570 O   0  0  0  0  0  0  0  0  0  0  0  0
   38.9210  -12.0930    4.6450 C   0  0  0  0  0  0  0  0  0  0  0  0
   38.9930  -14.8070    5.2810 C   0  0  0  0  0  0  0  0  0  0  0  0
   38.9280  -15.8380    6.1920 C   0  0  0  0  0  0  0  0  0  0  0  0
   40.1300  -16.5690    6.4270 N   0  0  0  0  0  0  0  0  0  0  0  0
   41.2520  -15.6590    6.5820 C   0  0  0  0  0  0  0  0  0  0  0  0
   40.0490  -17.5340    7.5040 C   0  0  0  0  0  0  0  0  0  0  0  0
   40.5060  -18.9020    7.0480 C   0  0  0  0  0  0  0  0  0  0  0  0
   39.6580  -19.9000    7.6850 N   0  0  0  0  0  0  0  0  0  0  0  0
   40.4350  -20.6050    8.6920 C   0  0  0  0  0  0  0  0  0  0  0  0
   39.3000  -20.8930    6.6900 C   0  0  0  0  0  0  0  0  0  0  0  0
   37.6890  -16.0650    6.7790 C   0  0  0  0  0  0  0  0  0  0  0  0
   37.5570  -17.1050    7.7180 N   0  0  0  0  0  0  0  0  0  0  0  0
   36.3710  -17.5320    8.2700 C   0  0  0  0  0  0  0  0  0  0  0  0
   36.5990  -18.6820    9.1570 C   0  0  0  0  0  0  0  0  0  0  0  0
   36.3170  -18.3490   10.6020 C   0  0  0  0  0  0  0  0  0  0  0  0
   35.2500  -17.0770    8.0970 O   0  0  0  0  0  0  0  0  0  0  0  0
   36.5880  -15.2850    6.4590 C   0  0  0  0  0  0  0  0  0  0  0  0
   33.4540  -12.6730    4.5900 N   0  0  0  0  0  0  0  0  0  0  0  0
   32.1600  -12.9510    4.4020 C   0  0  0  0  0  0  0  0  0  0  0  0
   31.6150  -14.2030    4.5600 C   0  0  0  0  0  0  0  0  0  0  0  0
  1  2  1  0  0  0  0
  2  3  4  0  0  0  0
  2  9  4  0  0  0  0
  3  4  4  0  0  0  0
  3  8  4  0  0  0  0
  4  5  4  0  0  0  0
  4 10  4  0  0  0  0
  5  6  4  0  0  0  0
  6  7  4  0  0  0  0
  7  8  4  0  0  0  0
  9 10  4  0  0  0  0
 10 11  1  0  0  0  0
 11 12  4  0  0  0  0
 11 37  4  0  0  0  0
 12 13  4  0  0  0  0
 13 14  1  0  0  0  0
 13 35  4  0  0  0  0
 14 15  1  0  0  0  0
 15 16  4  0  0  0  0
 15 34  4  0  0  0  0
 16 17  1  0  0  0  0
 16 19  4  0  0  0  0
 17 18  1  0  0  0  0
 19 20  4  0  0  0  0
 20 21  1  0  0  0  0
 20 28  4  0  0  0  0
 21 22  1  0  0  0  0
 21 23  1  0  0  0  0
 23 24  1  0  0  0  0
 24 25  1  0  0  0  0
 25 26  1  0  0  0  0
 25 27  1  0  0  0  0
 28 29  1  0  0  0  0
 28 34  4  0  0  0  0
 29 30  1  0  0  0  0
 30 31  1  0  0  0  0
 30 33  2  0  0  0  0
 31 32  1  0  0  0  0
 35 36  4  0  0  0  0
 36 37  4  0  0  0  0
M  END
$$$$
