complex
  PyMOL3.0          3D                             0

  5  4  0  0  0  0  0  0  0  0999 V2000
   10.6900  142.0080  173.6850 P   0  0  0  0  0  0  0  0  0  0  0  0
   11.7410  142.8720  173.0300 O   0  0  0  0  0  0  0  0  0  0  0  0
    9.3230  142.4210  173.1960 O   0  0  0  0  0  0  0  0  0  0  0  0
   10.9350  140.5610  173.3300 O   0  5  0  0  0  0  0  0  0  0  0  0
   10.7620  142.1770  175.1840 O   0  0  0  0  0  0  0  0  0  0  0  0
  1  2  1  0  0  0  0
  1  3  1  0  0  0  0
  1  4  1  0  0  0  0
  1  5  2  0  0  0  0
M  END
$$$$
