complex
  PyMOL3.0          3D                             0

 32 34  0  0  0  0  0  0  0  0999 V2000
  177.3170  174.8490  163.4330 P   0  0  0  0  0  0  0  0  0  0  0  0
  177.2100  177.1960  164.8450 P   0  0  0  0  0  0  0  0  0  0  0  0
  175.1570  176.9470  166.6340 P   0  0  0  0  0  0  0  0  0  0  0  0
  178.1200  172.4570  164.1820 C   0  0  0  0  0  0  0  0  0  0  0  0
  177.0740  173.2970  163.7570 O   0  0  0  0  0  0  0  0  0  0  0  0
  178.5620  171.6060  162.9990 C   0  0  0  0  0  0  0  0  0  0  0  0
  179.3070  172.4020  162.1100 O   0  0  0  0  0  0  0  0  0  0  0  0
  179.4410  170.4370  163.3980 C   0  0  0  0  0  0  0  0  0  0  0  0
  178.7720  169.2140  163.2060 O   0  0  0  0  0  0  0  0  0  0  0  0
  180.6520  170.5040  162.4980 C   0  0  0  0  0  0  0  0  0  0  0  0
  180.7990  169.2940  161.7890 O   0  0  0  0  0  0  0  0  0  0  0  0
  180.4220  171.7050  161.6000 C   0  0  0  0  0  0  0  0  0  0  0  0
  184.6900  173.3410  159.0710 N   0  0  0  0  0  0  0  0  0  0  0  0
  178.7200  175.0270  162.9240 O   0  5  0  0  0  0  0  0  0  0  0  0
  178.1970  177.6920  165.8740 O   0  5  0  0  0  0  0  0  0  0  0  0
  176.2860  176.9430  167.6300 O   0  0  0  0  0  0  0  0  0  0  0  0
  183.8180  172.3440  158.7140 C   0  0  0  0  0  0  0  0  0  0  0  0
  184.0160  171.6680  157.5950 N   0  0  0  0  0  0  0  0  0  0  0  0
  176.3040  175.3910  162.4640 O   0  0  0  0  0  0  0  0  0  0  0  0
  177.5200  177.7190  163.4640 O   0  0  0  0  0  0  0  0  0  0  0  0
  174.0230  177.7850  167.1540 O   0  5  0  0  0  0  0  0  0  0  0  0
  182.7400  172.0420  159.5070 N   0  0  0  0  0  0  0  0  0  0  0  0
  177.1760  175.5950  164.8390 O   0  0  0  0  0  0  0  0  0  0  0  0
  175.7200  177.5840  165.2800 O   0  0  0  0  0  0  0  0  0  0  0  0
  174.6920  175.5410  166.3700 O   0  0  0  0  0  0  0  0  0  0  0  0
  182.5280  172.7250  160.6470 C   0  0  0  0  0  0  0  0  0  0  0  0
  183.3920  173.7290  161.0270 C   0  0  0  0  0  0  0  0  0  0  0  0
  184.4800  174.0360  160.2330 C   0  0  0  0  0  0  0  0  0  0  0  0
  185.2530  174.9290  160.5630 O   0  0  0  0  0  0  0  0  0  0  0  0
  182.9480  174.2340  162.1920 N   0  0  0  0  0  0  0  0  0  0  0  0
  181.8260  173.5770  162.5540 C   0  0  0  0  0  0  0  0  0  0  0  0
  181.5650  172.6280  161.6080 N   0  0  0  0  0  0  0  0  0  0  0  0
  1  5  1  0  0  0  0
  1 14  1  0  0  0  0
  1 19  2  0  0  0  0
  1 23  1  0  0  0  0
  2 15  1  0  0  0  0
  2 20  2  0  0  0  0
  2 23  1  0  0  0  0
  2 24  1  0  0  0  0
  3 16  1  0  0  0  0
  3 21  1  0  0  0  0
  3 24  1  0  0  0  0
  3 25  2  0  0  0  0
  4  5  1  0  0  0  0
  4  6  1  0  0  0  0
  6  7  1  0  0  0  0
  6  8  1  0  0  0  0
  7 12  1  0  0  0  0
  8  9  1  0  0  0  0
  8 10  1  0  0  0  0
 10 11  1  0  0  0  0
 10 12  1  0  0  0  0
 12 32  1  0  0  0  0
 13 17  4  0  0  0  0
 13 28  4  0  0  0  0
 17 18  1  0  0  0  0
 17 22  4  0  0  0  0
 22 26  4  0  0  0  0
 26 27  4  0  0  0  0
 26 32  4  0  0  0  0
 27 28  4  0  0  0  0
 27 30  4  0  0  0  0
 28 29  2  0  0  0  0
 30 31  4  0  0  0  0
 31 32  4  0  0  0  0
M  END
$$$$
