complex
  PyMOL3.0          3D                             0

 13 12  0  0  0  0  0  0  0  0999 V2000
   26.4800    2.2400   33.5830 C   0  0  0  0  0  0  0  0  0  0  0  0
   26.1570    2.0750   32.3950 O   0  0  0  0  0  0  0  0  0  0  0  0
   25.3650    2.4070   34.6010 C   0  0  0  0  0  0  0  0  0  0  0  0
   27.6600    2.2640   33.9850 O   0  0  0  0  0  0  0  0  0  0  0  0
   25.4330    3.6570   35.4900 C   0  0  0  0  0  0  0  0  0  0  0  0
   22.8990    5.3630   34.4810 O   0  0  0  0  0  0  0  0  0  0  0  0
   24.0250    3.9550   36.0230 C   0  0  0  0  0  0  0  0  0  0  0  0
   22.2270    3.2730   34.6200 O   0  0  0  0  0  0  0  0  0  0  0  0
   22.9690    4.2170   34.9620 C   0  0  0  0  0  0  0  0  0  0  0  0
   27.2110    4.2970   36.9610 O   0  0  0  0  0  0  0  0  0  0  0  0
   26.3910    3.3980   36.6840 C   0  0  0  0  0  0  0  0  0  0  0  0
   26.2770    2.3120   37.2940 O   0  0  0  0  0  0  0  0  0  0  0  0
   25.8870    4.7650   34.7330 O   0  0  0  0  0  0  0  0  0  0  0  0
  1  2  4  0  0  0  0
  1  3  1  0  0  0  0
  1  4  4  0  0  0  0
  3  5  1  0  0  0  0
  5  7  1  0  0  0  0
  5 11  1  0  0  0  0
  5 13  1  0  0  0  0
  6  9  4  0  0  0  0
  7  9  1  0  0  0  0
  8  9  4  0  0  0  0
 10 11  4  0  0  0  0
 11 12  4  0  0  0  0
M  END
$$$$
