complex
  PyMOL3.0          3D                             0

  5  4  0  0  0  0  0  0  0  0999 V2000
   -3.8420  -13.8560   -1.8570 O   0  0  0  0  0  0  0  0  0  0  0  0
   -5.9460  -14.8640   -1.6960 O   0  0  0  0  0  0  0  0  0  0  0  0
   -4.7610  -14.3230    0.2560 O   0  5  0  0  0  0  0  0  0  0  0  0
   -5.7070  -12.6310   -1.0640 O   0  0  0  0  0  0  0  0  0  0  0  0
   -5.0670  -13.9210   -1.0970 S   0  0  0  0  0  0  0  0  0  0  0  0
  1  5  1  0  0  0  0
  2  5  1  0  0  0  0
  3  5  1  0  0  0  0
  4  5  2  0  0  0  0
M  END
$$$$
