complex
  PyMOL3.0          3D                             0

  5  4  0  0  0  0  0  0  0  0999 V2000
  -31.2130   11.0950   22.4100 O   0  0  0  0  0  0  0  0  0  0  0  0
  -31.8240    8.8490   21.8930 O   0  0  0  0  0  0  0  0  0  0  0  0
  -29.8580    9.2860   23.1720 O   0  5  0  0  0  0  0  0  0  0  0  0
  -32.0110    9.6510   24.1320 O   0  0  0  0  0  0  0  0  0  0  0  0
  -31.2260    9.7200   22.9020 S   0  0  0  0  0  0  0  0  0  0  0  0
  1  5  1  0  0  0  0
  2  5  1  0  0  0  0
  3  5  1  0  0  0  0
  4  5  2  0  0  0  0
M  END
$$$$
