complex
  PyMOL3.0          3D                             0

 16 17  0  0  0  0  0  0  0  0999 V2000
  -52.3500  -45.5130  -18.4680 Se  0  0  0  0  0  0  0  0  0  0  0  0
  -53.2410  -47.2250  -18.1910 C   0  0  0  0  0  0  0  0  0  0  0  0
  -52.5080  -48.3990  -18.2590 C   0  0  0  0  0  0  0  0  0  0  0  0
  -53.1320  -49.6220  -18.0650 C   0  0  0  0  0  0  0  0  0  0  0  0
  -54.4900  -49.6710  -17.8010 C   0  0  0  0  0  0  0  0  0  0  0  0
  -55.2230  -48.4990  -17.7330 C   0  0  0  0  0  0  0  0  0  0  0  0
  -54.6020  -47.2750  -17.9280 C   0  0  0  0  0  0  0  0  0  0  0  0
  -55.4320  -45.9930  -17.8470 C   0  0  0  0  0  0  0  0  0  0  0  0
  -56.1120  -45.6920  -18.7710 O   0  0  0  0  0  0  0  0  0  0  0  0
  -55.3710  -45.1840  -16.6350 N   0  0  0  0  0  0  0  0  0  0  0  0
  -56.1120  -43.9470  -16.4140 C   0  0  0  0  0  0  0  0  0  0  0  0
  -56.3550  -43.5470  -15.1390 C   0  0  0  0  0  0  0  0  0  0  0  0
  -57.0310  -42.4150  -14.8150 C   0  0  0  0  0  0  0  0  0  0  0  0
  -57.5110  -41.5980  -15.8260 C   0  0  0  0  0  0  0  0  0  0  0  0
  -57.2840  -41.9660  -17.1710 C   0  0  0  0  0  0  0  0  0  0  0  0
  -56.5730  -43.1540  -17.4550 C   0  0  0  0  0  0  0  0  0  0  0  0
  1  2  1  0  0  0  0
  2  3  4  0  0  0  0
  2  7  4  0  0  0  0
  3  4  4  0  0  0  0
  4  5  4  0  0  0  0
  5  6  4  0  0  0  0
  6  7  4  0  0  0  0
  7  8  1  0  0  0  0
  8  9  2  0  0  0  0
  8 10  1  0  0  0  0
 10 11  1  0  0  0  0
 11 12  4  0  0  0  0
 11 16  4  0  0  0  0
 12 13  4  0  0  0  0
 13 14  4  0  0  0  0
 14 15  4  0  0  0  0
 15 16  4  0  0  0  0
M  END
$$$$
