complex
  PyMOL3.0          3D                             0

 12 12  0  0  0  0  0  0  0  0999 V2000
   76.7860  -20.2880  -30.8630 C   0  0  0  0  0  0  0  0  0  0  0  0
   77.2110  -21.2200  -29.8620 O   0  0  0  0  0  0  0  0  0  0  0  0
   75.5040  -20.7930  -31.5150 C   0  0  0  0  0  0  0  0  0  0  0  0
   74.5020  -20.9880  -30.5100 O   0  0  0  0  0  0  0  0  0  0  0  0
   75.7470  -22.1050  -32.2510 C   0  0  0  0  0  0  0  0  0  0  0  0
   74.5910  -22.4360  -33.0300 O   0  0  0  0  0  0  0  0  0  0  0  0
   76.9620  -22.0000  -33.1640 C   0  0  0  0  0  0  0  0  0  0  0  0
   77.2960  -23.3000  -33.6650 O   0  0  0  0  0  0  0  0  0  0  0  0
   78.1580  -21.4210  -32.4180 C   0  0  0  0  0  0  0  0  0  0  0  0
   77.8030  -20.1600  -31.8540 O   0  0  0  0  0  0  0  0  0  0  0  0
   79.3490  -21.2430  -33.3510 C   0  0  0  0  0  0  0  0  0  0  0  0
   78.8870  -20.8290  -34.6420 O   0  0  0  0  0  0  0  0  0  0  0  0
  1  2  1  0  0  0  0
  1  3  1  0  0  0  0
  1 10  1  0  0  0  0
  3  4  1  0  0  0  0
  3  5  1  0  0  0  0
  5  6  1  0  0  0  0
  5  7  1  0  0  0  0
  7  8  1  0  0  0  0
  7  9  1  0  0  0  0
  9 10  1  0  0  0  0
  9 11  1  0  0  0  0
 11 12  1  0  0  0  0
M  END
$$$$
