complex
  PyMOL3.0          3D                             0

 31 34  0  0  0  0  0  0  0  0999 V2000
  -37.5960    4.2180  -23.7310 N   0  0  0  0  0  0  0  0  0  0  0  0
  -38.9250    4.1950  -23.1330 C   0  0  0  0  0  0  0  0  0  0  0  0
  -31.6920    4.5330  -25.3560 O   0  0  0  0  0  0  0  0  0  0  0  0
  -36.4180    4.1290  -23.1040 C   0  0  0  0  0  0  0  0  0  0  0  0
  -34.0600    4.2300  -24.0150 N   0  0  0  0  0  0  0  0  0  0  0  0
  -26.1410    5.0920  -17.4630 O   0  0  0  0  0  0  0  0  0  0  0  0
  -35.4600    4.1810  -24.0720 C   0  0  0  0  0  0  0  0  0  0  0  0
  -33.8570    4.2440  -21.6730 N   0  0  0  0  0  0  0  0  0  0  0  0
  -33.2500    4.2920  -22.8740 C   0  0  0  0  0  0  0  0  0  0  0  0
  -31.0800    4.3110  -21.8570 N   0  0  0  0  0  0  0  0  0  0  0  0
  -33.0760    4.2150  -20.5830 C   0  0  0  0  0  0  0  0  0  0  0  0
  -29.7540    4.3890  -24.1780 N   0  0  0  0  0  0  0  0  0  0  0  0
  -31.6860    4.2220  -20.6660 C   0  0  0  0  0  0  0  0  0  0  0  0
  -27.1840    3.5090  -18.6710 N   0  0  0  0  0  0  0  0  0  0  0  0
  -31.8430    4.3470  -22.9550 C   0  0  0  0  0  0  0  0  0  0  0  0
  -37.4500    4.3220  -25.0940 N   0  0  0  0  0  0  0  0  0  0  0  0
  -31.0880    4.4430  -24.2630 C   0  0  0  0  0  0  0  0  0  0  0  0
  -30.8390    4.0710  -19.4750 C   0  0  0  0  0  0  0  0  0  0  0  0
  -31.3430    4.2480  -18.2200 C   0  0  0  0  0  0  0  0  0  0  0  0
  -30.5100    4.2060  -16.9710 C   0  0  0  0  0  0  0  0  0  0  0  0
  -29.1560    3.5470  -17.2200 C   0  0  0  0  0  0  0  0  0  0  0  0
  -28.5160    4.0790  -18.4940 C   0  0  0  0  0  0  0  0  0  0  0  0
  -29.3840    3.7250  -19.7020 C   0  0  0  0  0  0  0  0  0  0  0  0
  -26.0880    4.0810  -18.1580 C   0  0  0  0  0  0  0  0  0  0  0  0
  -24.7870    3.4120  -18.4530 C   0  0  0  0  0  0  0  0  0  0  0  0
  -24.5570    2.7790  -19.6730 C   0  0  0  0  0  0  0  0  0  0  0  0
  -23.3700    2.1020  -19.8960 C   0  0  0  0  0  0  0  0  0  0  0  0
  -22.4060    2.0440  -18.9120 C   0  0  0  0  0  0  0  0  0  0  0  0
  -22.6170    2.6840  -17.7070 C   0  0  0  0  0  0  0  0  0  0  0  0
  -23.7950    3.3720  -17.4780 C   0  0  0  0  0  0  0  0  0  0  0  0
  -36.1410    4.2890  -25.2900 C   0  0  0  0  0  0  0  0  0  0  0  0
  1  2  1  0  0  0  0
  1  4  4  0  0  0  0
  1 16  4  0  0  0  0
  3 17  2  0  0  0  0
  4  7  4  0  0  0  0
  5  7  1  0  0  0  0
  5  9  1  0  0  0  0
  6 24  2  0  0  0  0
  7 31  4  0  0  0  0
  8  9  4  0  0  0  0
  8 11  4  0  0  0  0
  9 15  4  0  0  0  0
 10 13  4  0  0  0  0
 10 15  4  0  0  0  0
 11 13  4  0  0  0  0
 12 17  1  0  0  0  0
 13 18  1  0  0  0  0
 14 22  1  0  0  0  0
 14 24  1  0  0  0  0
 15 17  1  0  0  0  0
 16 31  4  0  0  0  0
 18 19  1  0  0  0  0
 18 23  1  0  0  0  0
 19 20  1  0  0  0  0
 20 21  1  0  0  0  0
 21 22  1  0  0  0  0
 22 23  1  0  0  0  0
 24 25  1  0  0  0  0
 25 26  4  0  0  0  0
 25 30  4  0  0  0  0
 26 27  4  0  0  0  0
 27 28  4  0  0  0  0
 28 29  4  0  0  0  0
 29 30  4  0  0  0  0
M  END
$$$$
