complex
  PyMOL3.0          3D                             0

 25 28  0  0  0  0  0  0  0  0999 V2000
    2.7610   21.0620   52.6220 P   0  0  0  0  0  0  0  0  0  0  0  0
    4.9280   20.5170   51.2320 C   0  0  0  0  0  0  0  0  0  0  0  0
    4.2330   20.4190   52.5000 O   0  0  0  0  0  0  0  0  0  0  0  0
    6.1720   19.6650   51.2850 C   0  0  0  0  0  0  0  0  0  0  0  0
    6.9830   20.1110   52.3960 O   0  0  0  0  0  0  0  0  0  0  0  0
    5.8980   18.1800   51.5160 C   0  0  0  0  0  0  0  0  0  0  0  0
    6.8530   17.3820   50.8250 O   0  0  0  0  0  0  0  0  0  0  0  0
    6.0670   18.0620   53.0250 C   0  0  0  0  0  0  0  0  0  0  0  0
    7.2240   19.0140   53.2720 C   0  0  0  0  0  0  0  0  0  0  0  0
    6.5550   20.4800   56.5400 N   0  0  0  0  0  0  0  0  0  0  0  0
    6.2310   20.1580   55.3080 C   0  0  0  0  0  0  0  0  0  0  0  0
    8.2890   19.4260   55.5270 C   0  0  0  0  0  0  0  0  0  0  0  0
    7.2500   19.5200   54.6420 N   0  0  0  0  0  0  0  0  0  0  0  0
    9.4940   18.8770   55.3330 N   0  0  0  0  0  0  0  0  0  0  0  0
   10.3220   18.9330   56.3860 C   0  0  0  0  0  0  0  0  0  0  0  0
    9.9840   19.5140   57.6140 C   0  0  0  0  0  0  0  0  0  0  0  0
    8.7260   20.0880   57.8100 C   0  0  0  0  0  0  0  0  0  0  0  0
    7.8600   20.0190   56.6970 C   0  0  0  0  0  0  0  0  0  0  0  0
    9.5240   20.9070   60.3510 S   0  0  0  0  0  0  0  0  0  0  0  0
    8.3530   20.6910   59.0980 C   0  0  0  0  0  0  0  0  0  0  0  0
    7.1150   21.1500   59.5120 C   0  0  0  0  0  0  0  0  0  0  0  0
    7.1500   21.6430   60.8430 C   0  0  0  0  0  0  0  0  0  0  0  0
    8.3720   21.5660   61.4100 C   0  0  0  0  0  0  0  0  0  0  0  0
    2.2170   20.6710   53.9830 O   0  5  0  0  0  0  0  0  0  0  0  0
    2.9070   22.5590   52.4190 O   0  5  0  0  0  0  0  0  0  0  0  0
  1  3  1  0  0  0  0
  1 24  1  0  0  0  0
  1 25  2  0  0  0  0
  2  3  1  0  0  0  0
  2  4  1  0  0  0  0
  4  5  1  0  0  0  0
  4  6  1  0  0  0  0
  5  9  1  0  0  0  0
  6  7  1  0  0  0  0
  6  8  1  0  0  0  0
  8  9  1  0  0  0  0
  9 13  1  0  0  0  0
 10 11  4  0  0  0  0
 10 18  4  0  0  0  0
 11 13  4  0  0  0  0
 12 13  4  0  0  0  0
 12 14  4  0  0  0  0
 12 18  4  0  0  0  0
 14 15  4  0  0  0  0
 15 16  4  0  0  0  0
 16 17  4  0  0  0  0
 17 18  4  0  0  0  0
 17 20  1  0  0  0  0
 19 20  4  0  0  0  0
 19 23  4  0  0  0  0
 20 21  4  0  0  0  0
 21 22  4  0  0  0  0
 22 23  4  0  0  0  0
M  END
$$$$
