complex
  PyMOL3.0          3D                             0

  4  3  0  0  0  0  0  0  0  0999 V2000
  -27.6800   12.5870   13.7940 C   0  0  0  0  0  0  0  0  0  0  0  0
  -27.7580   13.3560   12.5810 O   0  0  0  0  0  0  0  0  0  0  0  0
  -26.6920   13.2450   14.7510 C   0  0  0  0  0  0  0  0  0  0  0  0
  -26.9530   14.6550   14.8380 O   0  0  0  0  0  0  0  0  0  0  0  0
  1  2  1  0  0  0  0
  1  3  1  0  0  0  0
  3  4  1  0  0  0  0
M  END
$$$$
