complex
  PyMOL3.0          3D                             0

 10  9  0  0  0  0  0  0  0  0999 V2000
   16.6900   23.5120    9.9660 N   0  0  0  0  0  0  0  0  0  0  0  0
   17.0450   24.7750    9.3460 C   0  0  0  0  0  0  0  0  0  0  0  0
   16.9300   24.6200    7.8350 C   0  0  0  0  0  0  0  0  0  0  0  0
   17.1000   23.5300    7.2900 O   0  0  0  0  0  0  0  0  0  0  0  0
   18.4360   25.2480    9.7940 C   0  0  0  0  0  0  0  0  0  0  0  0
   19.3900   24.2990    9.4080 O   0  0  0  0  0  0  0  0  0  0  0  0
   20.7150   24.2030   10.3200 P   0  0  0  0  0  0  0  0  0  0  0  0
   21.8040   23.4450    9.4020 O   0  0  0  0  0  0  0  0  0  0  0  0
   20.3680   23.2440   11.5680 O   0  5  0  0  0  0  0  0  0  0  0  0
   21.2250   25.6250   10.8650 O   0  0  0  0  0  0  0  0  0  0  0  0
  1  2  1  0  0  0  0
  2  3  1  0  0  0  0
  2  5  1  0  0  0  0
  3  4  2  0  0  0  0
  5  6  1  0  0  0  0
  6  7  1  0  0  0  0
  7  8  1  0  0  0  0
  7  9  1  0  0  0  0
  7 10  2  0  0  0  0
M  END
$$$$
