complex
  PyMOL3.0          3D                             0

 24 23  0  0  0  0  0  0  0  0999 V2000
   29.9550    2.0420  -46.2710 C   0  0  0  0  0  0  0  0  0  0  0  0
   29.2570    0.7750  -46.2120 O   0  0  0  0  0  0  0  0  0  0  0  0
   29.1020    3.0540  -47.0060 C   0  0  0  0  0  0  0  0  0  0  0  0
   29.3660    4.4030  -46.6070 O   0  0  0  0  0  0  0  0  0  0  0  0
   28.9800    5.4180  -47.5330 C   0  0  0  0  0  0  0  0  0  0  0  0
   26.9840    6.1610  -48.7310 O   0  0  0  0  0  0  0  0  0  0  0  0
   27.7610    5.0360  -48.3480 C   0  0  0  0  0  0  0  0  0  0  0  0
   24.3100    7.5750  -48.9820 O   0  0  0  0  0  0  0  0  0  0  0  0
   25.8590    5.7650  -49.5110 C   0  0  0  0  0  0  0  0  0  0  0  0
   24.5490    6.1590  -48.8460 C   0  0  0  0  0  0  0  0  0  0  0  0
   29.8890    0.1010  -45.9340 H   0  0  0  0  0  0  0  0  0  0  0  0
   23.3630    7.7210  -48.8980 H   0  0  0  0  0  0  0  0  0  0  0  0
   30.9140    1.9530  -46.8030 H   0  0  0  0  0  0  0  0  0  0  0  0
   28.0410    2.8090  -46.8220 H   0  0  0  0  0  0  0  0  0  0  0  0
   28.7510    6.3540  -46.9950 H   0  0  0  0  0  0  0  0  0  0  0  0
   27.1480    4.3420  -47.7470 H   0  0  0  0  0  0  0  0  0  0  0  0
   25.8960    6.2360  -50.5080 H   0  0  0  0  0  0  0  0  0  0  0  0
   24.6070    5.8650  -47.7840 H   0  0  0  0  0  0  0  0  0  0  0  0
   30.1630    2.4380  -45.2660 H   0  0  0  0  0  0  0  0  0  0  0  0
   29.2870    2.9390  -48.0880 H   0  0  0  0  0  0  0  0  0  0  0  0
   29.8060    5.6280  -48.2330 H   0  0  0  0  0  0  0  0  0  0  0  0
   28.1030    4.4910  -49.2450 H   0  0  0  0  0  0  0  0  0  0  0  0
   25.8570    4.6720  -49.6590 H   0  0  0  0  0  0  0  0  0  0  0  0
   23.7410    5.5720  -49.3150 H   0  0  0  0  0  0  0  0  0  0  0  0
  1  2  1  0  0  0  0
  1  3  1  0  0  0  0
  1 13  1  0  0  0  0
  1 19  1  0  0  0  0
  2 11  1  0  0  0  0
  3  4  1  0  0  0  0
  3 14  1  0  0  0  0
  3 20  1  0  0  0  0
  4  5  1  0  0  0  0
  5  7  1  0  0  0  0
  5 15  1  0  0  0  0
  5 21  1  0  0  0  0
  6  7  1  0  0  0  0
  6  9  1  0  0  0  0
  7 16  1  0  0  0  0
  7 22  1  0  0  0  0
  8 10  1  0  0  0  0
  8 12  1  0  0  0  0
  9 10  1  0  0  0  0
  9 17  1  0  0  0  0
  9 23  1  0  0  0  0
 10 18  1  0  0  0  0
 10 24  1  0  0  0  0
M  END
$$$$
