complex
  PyMOL3.0          3D                             0

 14 14  0  0  0  0  0  0  0  0999 V2000
  145.5630  142.6390  233.6850 C   0  0  0  0  0  0  0  0  0  0  0  0
  146.4140  141.8840  232.6590 C   0  0  0  0  0  0  0  0  0  0  0  0
  147.0730  140.7300  233.2450 N   0  0  0  0  0  0  0  0  0  0  0  0
  147.4370  142.8250  232.0420 C   0  0  0  0  0  0  0  0  0  0  0  0
  148.2170  142.1170  231.0860 O   0  0  0  0  0  0  0  0  0  0  0  0
  146.7360  144.0090  231.3910 C   0  0  0  0  0  0  0  0  0  0  0  0
  147.7120  144.9200  230.8960 O   0  0  0  0  0  0  0  0  0  0  0  0
  145.8460  144.7220  232.4140 C   0  0  0  0  0  0  0  0  0  0  0  0
  144.9390  143.7950  233.0430 O   0  0  0  0  0  0  0  0  0  0  0  0
  144.9990  145.8080  231.7930 C   0  0  0  0  0  0  0  0  0  0  0  0
  144.1260  146.4030  232.7430 O   0  0  0  0  0  0  0  0  0  0  0  0
  147.0160  139.5090  232.7040 C   0  0  0  0  0  0  0  0  0  0  0  0
  146.3950  139.2860  231.6710 O   0  0  0  0  0  0  0  0  0  0  0  0
  147.7540  138.4310  233.4370 C   0  0  0  0  0  0  0  0  0  0  0  0
  1  2  1  0  0  0  0
  1  9  1  0  0  0  0
  2  3  1  0  0  0  0
  2  4  1  0  0  0  0
  3 12  1  0  0  0  0
  4  5  1  0  0  0  0
  4  6  1  0  0  0  0
  6  7  1  0  0  0  0
  6  8  1  0  0  0  0
  8  9  1  0  0  0  0
  8 10  1  0  0  0  0
 10 11  1  0  0  0  0
 12 13  2  0  0  0  0
 12 14  1  0  0  0  0
M  END
$$$$
