complex
  PyMOL3.0          3D                             0

  4  3  0  0  0  0  0  0  0  0999 V2000
   11.6500   61.0570   -3.7480 C   0  0  0  0  0  0  0  0  0  0  0  0
   11.6250   62.3450   -4.3240 O   0  0  0  0  0  0  0  0  0  0  0  0
   10.6250   60.1670   -4.3360 C   0  0  0  0  0  0  0  0  0  0  0  0
   11.0220   58.8110   -4.4000 O   0  0  0  0  0  0  0  0  0  0  0  0
  1  2  1  0  0  0  0
  1  3  1  0  0  0  0
  3  4  1  0  0  0  0
M  END
$$$$
