complex
  PyMOL3.0          3D                             0

 27 29  0  0  0  0  0  0  0  0999 V2000
  188.3260  163.4850  213.0650 P   0  0  0  0  0  0  0  0  0  0  0  0
  190.8420  162.5500  213.9080 P   0  0  0  0  0  0  0  0  0  0  0  0
  187.7150  163.8610  215.5940 C   0  0  0  0  0  0  0  0  0  0  0  0
  187.7560  162.9720  214.4790 O   0  0  0  0  0  0  0  0  0  0  0  0
  186.4420  163.6340  216.4010 C   0  0  0  0  0  0  0  0  0  0  0  0
  186.3420  162.2910  216.8790 O   0  0  0  0  0  0  0  0  0  0  0  0
  186.3770  164.5290  217.6280 C   0  0  0  0  0  0  0  0  0  0  0  0
  185.4340  165.5800  217.4140 O   0  0  0  0  0  0  0  0  0  0  0  0
  185.8970  163.6430  218.7580 C   0  0  0  0  0  0  0  0  0  0  0  0
  184.6960  164.1740  219.3190 O   0  0  0  0  0  0  0  0  0  0  0  0
  185.6180  162.2990  218.1120 C   0  0  0  0  0  0  0  0  0  0  0  0
  184.1780  159.0360  221.9480 N   0  0  0  0  0  0  0  0  0  0  0  0
  188.1690  162.3810  212.0490 O   0  5  0  0  0  0  0  0  0  0  0  0
  190.5770  161.3800  212.9920 O   0  0  0  0  0  0  0  0  0  0  0  0
  183.4830  160.0000  221.3200 C   0  0  0  0  0  0  0  0  0  0  0  0
  187.6960  164.8320  212.8170 O   0  0  0  0  0  0  0  0  0  0  0  0
  192.2280  163.1320  213.7800 O   0  5  0  0  0  0  0  0  0  0  0  0
  183.9920  160.7680  220.3410 N   0  0  0  0  0  0  0  0  0  0  0  0
  189.8960  163.7150  213.3260 O   0  0  0  0  0  0  0  0  0  0  0  0
  190.3940  162.3400  215.3320 O   0  0  0  0  0  0  0  0  0  0  0  0
  185.2690  160.6080  219.9230 C   0  0  0  0  0  0  0  0  0  0  0  0
  186.0940  159.5750  220.5600 C   0  0  0  0  0  0  0  0  0  0  0  0
  185.4630  158.7690  221.6300 C   0  0  0  0  0  0  0  0  0  0  0  0
  186.1540  157.7960  222.2700 N   0  0  0  0  0  0  0  0  0  0  0  0
  187.3000  159.6280  219.9670 N   0  0  0  0  0  0  0  0  0  0  0  0
  187.2520  160.6090  219.0310 C   0  0  0  0  0  0  0  0  0  0  0  0
  186.0410  161.1930  219.0060 N   0  0  0  0  0  0  0  0  0  0  0  0
  1  4  1  0  0  0  0
  1 13  1  0  0  0  0
  1 16  2  0  0  0  0
  1 19  1  0  0  0  0
  2 14  1  0  0  0  0
  2 17  1  0  0  0  0
  2 19  1  0  0  0  0
  2 20  2  0  0  0  0
  3  4  1  0  0  0  0
  3  5  1  0  0  0  0
  5  6  1  0  0  0  0
  5  7  1  0  0  0  0
  6 11  1  0  0  0  0
  7  8  1  0  0  0  0
  7  9  1  0  0  0  0
  9 10  1  0  0  0  0
  9 11  1  0  0  0  0
 11 27  1  0  0  0  0
 12 15  4  0  0  0  0
 12 23  4  0  0  0  0
 15 18  4  0  0  0  0
 18 21  4  0  0  0  0
 21 22  4  0  0  0  0
 21 27  4  0  0  0  0
 22 23  4  0  0  0  0
 22 25  4  0  0  0  0
 23 24  1  0  0  0  0
 25 26  4  0  0  0  0
 26 27  4  0  0  0  0
M  END
$$$$
