complex
  PyMOL3.0          3D                             0

 31 35  0  0  0  0  0  0  0  0999 V2000
   18.0720  -11.3100   23.2740 C   0  0  0  0  0  0  0  0  0  0  0  0
   17.4170  -11.4260   21.9790 N   0  0  0  0  0  0  0  0  0  0  0  0
   17.0520  -12.4140   21.1260 C   0  0  0  0  0  0  0  0  0  0  0  0
   17.2590  -13.9070   21.2900 C   0  0  0  0  0  0  0  0  0  0  0  0
   18.7730  -14.1970   21.4680 C   0  0  0  0  0  0  0  0  0  0  0  0
   16.7940  -14.6410   20.0100 C   0  0  0  0  0  0  0  0  0  0  0  0
   16.4830  -14.4050   22.5350 C   0  0  0  0  0  0  0  0  0  0  0  0
   16.4450  -11.8090   20.0600 C   0  0  0  0  0  0  0  0  0  0  0  0
   16.4740  -10.4200   20.3530 C   0  0  0  0  0  0  0  0  0  0  0  0
   15.9750   -9.4180   19.5430 N   0  0  0  0  0  0  0  0  0  0  0  0
   15.3160   -9.3540   18.3490 C   0  0  0  0  0  0  0  0  0  0  0  0
   14.7940   -8.1950   17.7720 C   0  0  0  0  0  0  0  0  0  0  0  0
   14.1740   -8.3640   16.5280 C   0  0  0  0  0  0  0  0  0  0  0  0
   13.7350   -7.1690   16.1360 N   0  0  0  0  0  0  0  0  0  0  0  0
   14.0620   -6.1950   17.1160 N   0  0  0  0  0  0  0  0  0  0  0  0
   14.6890   -6.8000   18.0700 C   0  0  0  0  0  0  0  0  0  0  0  0
   14.0530   -9.4970   15.8700 N   0  0  0  0  0  0  0  0  0  0  0  0
   14.5850  -10.5480   16.4950 C   0  0  0  0  0  0  0  0  0  0  0  0
   14.4690  -11.7350   15.8820 N   0  0  0  0  0  0  0  0  0  0  0  0
   14.6390  -12.9620   16.6160 C   0  0  0  0  0  0  0  0  0  0  0  0
   13.6350  -14.1190   16.3120 C   0  0  0  0  0  0  0  0  0  0  0  0
   13.4220  -14.1400   14.8910 O   0  0  0  0  0  0  0  0  0  0  0  0
   14.4460  -15.3690   16.7450 C   0  0  0  0  0  0  0  0  0  0  0  0
   15.8750  -14.9760   16.3770 C   0  0  0  0  0  0  0  0  0  0  0  0
   15.9760  -13.6010   16.3030 C   0  0  0  0  0  0  0  0  0  0  0  0
   17.1560  -12.9660   15.9830 C   0  0  0  0  0  0  0  0  0  0  0  0
   18.2800  -13.7460   15.7390 C   0  0  0  0  0  0  0  0  0  0  0  0
   18.1940  -15.1290   15.8160 C   0  0  0  0  0  0  0  0  0  0  0  0
   16.9910  -15.7570   16.1340 C   0  0  0  0  0  0  0  0  0  0  0  0
   15.1980  -10.5130   17.6950 N   0  0  0  0  0  0  0  0  0  0  0  0
   17.0530  -10.1820   21.4770 N   0  0  0  0  0  0  0  0  0  0  0  0
  1  2  1  0  0  0  0
  2  3  4  0  0  0  0
  2 31  4  0  0  0  0
  3  4  1  0  0  0  0
  3  8  4  0  0  0  0
  4  5  1  0  0  0  0
  4  6  1  0  0  0  0
  4  7  1  0  0  0  0
  8  9  4  0  0  0  0
  9 10  1  0  0  0  0
  9 31  4  0  0  0  0
 10 11  1  0  0  0  0
 11 12  4  0  0  0  0
 11 30  4  0  0  0  0
 12 13  4  0  0  0  0
 12 16  4  0  0  0  0
 13 14  4  0  0  0  0
 13 17  4  0  0  0  0
 14 15  4  0  0  0  0
 15 16  4  0  0  0  0
 17 18  4  0  0  0  0
 18 19  1  0  0  0  0
 18 30  4  0  0  0  0
 19 20  1  0  0  0  0
 20 21  1  0  0  0  0
 20 25  1  0  0  0  0
 21 22  1  0  0  0  0
 21 23  1  0  0  0  0
 23 24  1  0  0  0  0
 24 25  4  0  0  0  0
 24 29  4  0  0  0  0
 25 26  4  0  0  0  0
 26 27  4  0  0  0  0
 27 28  4  0  0  0  0
 28 29  4  0  0  0  0
M  END
$$$$
