complex
  PyMOL3.0          3D                             0

 29 32  0  0  0  0  0  0  0  0999 V2000
    4.8380    9.2680    9.3770 C   0  0  0  0  0  0  0  0  0  0  0  0
    4.8020   10.7010   11.3330 C   0  0  0  0  0  0  0  0  0  0  0  0
    4.2400    9.9340   12.3480 C   0  0  0  0  0  0  0  0  0  0  0  0
    3.6920   10.5370   13.4990 C   0  0  0  0  0  0  0  0  0  0  0  0
    4.8250   12.0920   11.4830 C   0  0  0  0  0  0  0  0  0  0  0  0
    4.2950   12.6900   12.6240 C   0  0  0  0  0  0  0  0  0  0  0  0
    3.7260   11.9340   13.6570 C   0  0  0  0  0  0  0  0  0  0  0  0
    2.9380   12.0900   15.9370 C   0  0  0  0  0  0  0  0  0  0  0  0
    2.3650   13.0840   16.9530 C   0  0  0  0  0  0  0  0  0  0  0  0
    0.9990   12.8310   17.1500 C   0  0  0  0  0  0  0  0  0  0  0  0
    0.1100   12.8920   16.0700 C   0  0  0  0  0  0  0  0  0  0  0  0
   -1.2530   12.6430   16.2640 C   0  0  0  0  0  0  0  0  0  0  0  0
    0.5300   12.5250   18.4310 C   0  0  0  0  0  0  0  0  0  0  0  0
   -0.8330   12.2770   18.6230 C   0  0  0  0  0  0  0  0  0  0  0  0
   -1.7160   12.3330   17.5400 C   0  0  0  0  0  0  0  0  0  0  0  0
    6.6940   10.7910    9.7650 C   0  0  0  0  0  0  0  0  0  0  0  0
    7.8140   10.1780   10.6070 C   0  0  0  0  0  0  0  0  0  0  0  0
    3.6240    8.6060    9.5990 C   0  0  0  0  0  0  0  0  0  0  0  0
    3.1970    8.0930   10.8160 C   0  0  0  0  0  0  0  0  0  0  0  0
    1.9600    7.4530   10.9210 C   0  0  0  0  0  0  0  0  0  0  0  0
    2.8060    8.4840    8.4720 C   0  0  0  0  0  0  0  0  0  0  0  0
    5.3590   10.2340   10.1780 N   0  0  0  0  0  0  0  0  0  0  0  0
    3.2210   12.6270   14.7170 N   0  0  0  0  0  0  0  0  0  0  0  0
    3.0990   10.9230   16.2810 O   0  0  0  0  0  0  0  0  0  0  0  0
    4.1110    8.1860   12.3270 S   0  0  0  0  0  0  0  0  0  0  0  0
    1.5670    7.8400    8.5780 C   0  0  0  0  0  0  0  0  0  0  0  0
    1.1380    7.3250    9.7980 C   0  0  0  0  0  0  0  0  0  0  0  0
    5.5100    8.9370    8.4000 O   0  0  0  0  0  0  0  0  0  0  0  0
   -3.0290   12.0920   17.7350 F   0  0  0  0  0  0  0  0  0  0  0  0
  1 18  1  0  0  0  0
  1 22  1  0  0  0  0
  1 28  2  0  0  0  0
  2  3  4  0  0  0  0
  2  5  4  0  0  0  0
  2 22  1  0  0  0  0
  3  4  4  0  0  0  0
  3 25  1  0  0  0  0
  4  7  4  0  0  0  0
  5  6  4  0  0  0  0
  6  7  4  0  0  0  0
  7 23  1  0  0  0  0
  8  9  1  0  0  0  0
  8 23  1  0  0  0  0
  8 24  2  0  0  0  0
  9 10  1  0  0  0  0
 10 11  4  0  0  0  0
 10 13  4  0  0  0  0
 11 12  4  0  0  0  0
 12 15  4  0  0  0  0
 13 14  4  0  0  0  0
 14 15  4  0  0  0  0
 15 29  1  0  0  0  0
 16 17  1  0  0  0  0
 16 22  1  0  0  0  0
 18 19  4  0  0  0  0
 18 21  4  0  0  0  0
 19 20  4  0  0  0  0
 19 25  1  0  0  0  0
 20 27  4  0  0  0  0
 21 26  4  0  0  0  0
 26 27  4  0  0  0  0
M  END
$$$$
