complex
  PyMOL3.0          3D                             0

  5  4  0  0  0  0  0  0  0  0999 V2000
   26.0760  -13.9500   38.5170 O   0  0  0  0  0  0  0  0  0  0  0  0
   23.8400  -14.9920   38.5720 O   0  0  0  0  0  0  0  0  0  0  0  0
   25.8150  -16.0810   39.4500 O   0  5  0  0  0  0  0  0  0  0  0  0
   25.0010  -14.2050   40.6110 O   0  0  0  0  0  0  0  0  0  0  0  0
   25.1660  -14.7840   39.2790 S   0  0  0  0  0  0  0  0  0  0  0  0
  1  5  1  0  0  0  0
  2  5  1  0  0  0  0
  3  5  1  0  0  0  0
  4  5  2  0  0  0  0
M  END
$$$$
