complex
  PyMOL3.0          3D                             0

 14 12  0  0  0  0  0  0  0  0999 V2000
  -48.8580   -9.3360  -26.7060 C   0  0  0  0  0  0  0  0  0  0  0  0
  -49.4560  -11.8270  -25.8710 C   0  0  0  0  0  0  0  0  0  0  0  0
  -48.0380   -9.7480  -25.6190 O   0  0  0  0  0  0  0  0  0  0  0  0
  -49.2640  -12.4400  -27.1420 O   0  0  0  0  0  0  0  0  0  0  0  0
  -50.3090   -9.4480  -26.3490 C   0  0  0  0  0  0  0  0  0  0  0  0
  -50.8230  -11.2250  -25.7760 C   0  0  0  0  0  0  0  0  0  0  0  0
  -50.4060   -9.7100  -24.9600 O   0  0  0  0  0  0  0  0  0  0  0  0
  -51.1430  -10.9680  -24.4120 O   0  0  0  0  0  0  0  0  0  0  0  0
  -51.7170  -10.0550  -24.5340 C   0  0  0  0  0  0  0  0  0  0  0  0
  -52.3280  -10.1870  -24.2640 C   0  0  0  0  0  0  0  0  0  0  0  0
  -52.4990   -8.8020  -24.2830 C   0  0  0  0  0  0  0  0  0  0  0  0
  -52.0290   -8.7420  -24.5550 C   0  0  0  0  0  0  0  0  0  0  0  0
  -53.3710   -8.9360  -23.1740 O   0  0  0  0  0  0  0  0  0  0  0  0
  -53.1680   -7.9090  -24.3440 O   0  0  0  0  0  0  0  0  0  0  0  0
  1  3  1  0  0  0  0
  1  5  1  0  0  0  0
  2  4  1  0  0  0  0
  2  6  1  0  0  0  0
  5  7  1  0  0  0  0
  6  8  1  0  0  0  0
  7  9  1  0  0  0  0
  8 10  1  0  0  0  0
  9 11  1  0  0  0  0
 10 12  1  0  0  0  0
 11 13  1  0  0  0  0
 12 14  1  0  0  0  0
M  END
$$$$
