complex
  PyMOL3.0          3D                             0

 12 12  0  0  0  0  0  0  0  0999 V2000
  110.2180  -47.0470  -14.3600 C   0  0  0  0  0  0  0  0  0  0  0  0
  109.0770  -46.3760  -13.8130 O   0  0  0  0  0  0  0  0  0  0  0  0
  110.0900  -47.1130  -15.8770 C   0  0  0  0  0  0  0  0  0  0  0  0
  109.9310  -45.7900  -16.4000 O   0  0  0  0  0  0  0  0  0  0  0  0
  108.8990  -47.9690  -16.2920 C   0  0  0  0  0  0  0  0  0  0  0  0
  108.9460  -48.2010  -17.7040 O   0  0  0  0  0  0  0  0  0  0  0  0
  108.9010  -49.3040  -15.5580 C   0  0  0  0  0  0  0  0  0  0  0  0
  107.6620  -49.9810  -15.7940 O   0  0  0  0  0  0  0  0  0  0  0  0
  109.0920  -49.1020  -14.0590 C   0  0  0  0  0  0  0  0  0  0  0  0
  110.2930  -48.3690  -13.8290 O   0  0  0  0  0  0  0  0  0  0  0  0
  109.1660  -50.4400  -13.3330 C   0  0  0  0  0  0  0  0  0  0  0  0
  108.4030  -50.3680  -12.1230 O   0  0  0  0  0  0  0  0  0  0  0  0
  1  2  1  0  0  0  0
  1  3  1  0  0  0  0
  1 10  1  0  0  0  0
  3  4  1  0  0  0  0
  3  5  1  0  0  0  0
  5  6  1  0  0  0  0
  5  7  1  0  0  0  0
  7  8  1  0  0  0  0
  7  9  1  0  0  0  0
  9 10  1  0  0  0  0
  9 11  1  0  0  0  0
 11 12  1  0  0  0  0
M  END
$$$$
