complex
  PyMOL3.0          3D                             0

  6  5  0  0  0  0  0  0  0  0999 V2000
  -24.9740   -4.0430  -10.5190 C   0  0  0  0  0  0  0  0  0  0  0  0
  -23.6850   -4.3580  -10.0530 O   0  0  0  0  0  0  0  0  0  0  0  0
  -25.1350   -2.5770  -10.7840 C   0  0  0  0  0  0  0  0  0  0  0  0
  -26.0870   -2.3820  -11.8120 O   0  0  0  0  0  0  0  0  0  0  0  0
  -25.6080   -1.8260   -9.5730 C   0  0  0  0  0  0  0  0  0  0  0  0
  -26.4800   -2.6290   -8.8170 O   0  0  0  0  0  0  0  0  0  0  0  0
  1  2  1  0  0  0  0
  1  3  1  0  0  0  0
  3  4  1  0  0  0  0
  3  5  1  0  0  0  0
  5  6  1  0  0  0  0
M  END
$$$$
