complex
  PyMOL3.0          3D                             0

 43 46  0  0  0  0  0  0  0  0999 V2000
  172.2130  168.1600  169.7760 C   0  0  0  0  0  0  0  0  0  0  0  0
  178.0410  171.4770  165.9420 C   0  0  0  0  0  0  0  0  0  0  0  0
  177.1350  176.5570  165.0900 C   0  0  0  0  0  0  0  0  0  0  0  0
  170.8070  181.5990  166.7090 C   0  0  0  0  0  0  0  0  0  0  0  0
  171.4800  167.0110  170.3920 C   0  0  0  0  0  0  0  0  0  0  0  0
  177.9880  171.4100  164.4200 C   0  0  0  0  0  0  0  0  0  0  0  0
  177.1030  176.1350  163.6130 C   0  0  0  0  0  0  0  0  0  0  0  0
  169.6420  182.1450  166.4770 C   0  0  0  0  0  0  0  0  0  0  0  0
  179.3070  171.0590  163.7510 C   0  0  0  0  0  0  0  0  0  0  0  0
  176.6830  177.2210  162.6330 C   0  0  0  0  0  0  0  0  0  0  0  0
  173.7600  170.0510  168.1630 C   0  0  0  0  0  0  0  0  0  0  0  0
  176.0730  173.8940  166.2670 C   0  0  0  0  0  0  0  0  0  0  0  0
  172.7280  177.1600  167.3790 C   0  0  0  0  0  0  0  0  0  0  0  0
  169.3400  169.2560  168.5290 C   0  0  0  0  0  0  0  0  0  0  0  0
  176.5310  168.9640  167.1940 C   0  0  0  0  0  0  0  0  0  0  0  0
  175.0900  178.7480  165.9600 C   0  0  0  0  0  0  0  0  0  0  0  0
  171.1610  179.3910  169.0080 C   0  0  0  0  0  0  0  0  0  0  0  0
  170.5830  171.3760  169.1010 C   0  0  0  0  0  0  0  0  0  0  0  0
  174.7380  170.8130  167.5610 C   0  0  0  0  0  0  0  0  0  0  0  0
  175.3930  175.0660  166.3370 C   0  0  0  0  0  0  0  0  0  0  0  0
  171.9560  178.1320  166.8270 C   0  0  0  0  0  0  0  0  0  0  0  0
  179.3460  170.0410  163.0280 O   0  0  0  0  0  0  0  0  0  0  0  0
  175.9900  176.8890  161.6490 O   0  0  0  0  0  0  0  0  0  0  0  0
  170.3490  169.9100  169.4800 C   0  0  0  0  0  0  0  0  0  0  0  0
  176.0180  170.3670  167.0970 C   0  0  0  0  0  0  0  0  0  0  0  0
  175.8530  176.3320  165.8440 C   0  0  0  0  0  0  0  0  0  0  0  0
  171.3920  179.2480  167.5300 C   0  0  0  0  0  0  0  0  0  0  0  0
  180.2860  171.8120  163.9410 O   0  0  0  0  0  0  0  0  0  0  0  0
  177.0570  178.3900  162.8430 O   0  0  0  0  0  0  0  0  0  0  0  0
  171.7550  169.3530  169.3790 C   0  0  0  0  0  0  0  0  0  0  0  0
  176.6700  171.4540  166.5610 C   0  0  0  0  0  0  0  0  0  0  0  0
  174.9380  177.2720  166.2050 C   0  0  0  0  0  0  0  0  0  0  0  0
  171.1250  180.2430  166.5350 C   0  0  0  0  0  0  0  0  0  0  0  0
  172.5550  170.3040  168.7510 C   0  0  0  0  0  0  0  0  0  0  0  0
  175.8030  172.5910  166.6810 C   0  0  0  0  0  0  0  0  0  0  0  0
  173.8480  176.5970  166.8520 C   0  0  0  0  0  0  0  0  0  0  0  0
  171.2600  179.5430  165.2280 C   0  0  0  0  0  0  0  0  0  0  0  0
  171.9110  171.5270  168.8710 N   0  0  0  0  0  0  0  0  0  0  0  0
  174.6520  172.1550  167.2880 N   0  0  0  0  0  0  0  0  0  0  0  0
  174.1470  175.2600  166.8660 N   0  0  0  0  0  0  0  0  0  0  0  0
  171.5690  178.2290  165.4990 N   0  0  0  0  0  0  0  0  0  0  0  0
  169.7390  172.2500  169.0150 O   0  0  0  0  0  0  0  0  0  0  0  0
  171.1320  180.0200  164.1100 O   0  0  0  0  0  0  0  0  0  0  0  0
  1  5  1  0  0  0  0
  1 30  1  0  0  0  0
  2  6  1  0  0  0  0
  2 31  1  0  0  0  0
  3  7  1  0  0  0  0
  3 26  1  0  0  0  0
  4  8  1  0  0  0  0
  4 33  1  0  0  0  0
  6  9  1  0  0  0  0
  7 10  1  0  0  0  0
  9 22  4  0  0  0  0
  9 28  4  0  0  0  0
 10 23  4  0  0  0  0
 10 29  4  0  0  0  0
 11 19  1  0  0  0  0
 11 34  1  0  0  0  0
 12 20  1  0  0  0  0
 12 35  1  0  0  0  0
 13 21  1  0  0  0  0
 13 36  1  0  0  0  0
 14 24  1  0  0  0  0
 15 25  1  0  0  0  0
 16 32  1  0  0  0  0
 17 27  1  0  0  0  0
 18 24  1  0  0  0  0
 18 38  1  0  0  0  0
 18 42  2  0  0  0  0
 19 25  4  0  0  0  0
 19 39  4  0  0  0  0
 20 26  4  0  0  0  0
 20 40  4  0  0  0  0
 21 27  1  0  0  0  0
 21 41  1  0  0  0  0
 24 30  1  0  0  0  0
 25 31  4  0  0  0  0
 26 32  4  0  0  0  0
 27 33  1  0  0  0  0
 30 34  1  0  0  0  0
 31 35  4  0  0  0  0
 32 36  4  0  0  0  0
 33 37  1  0  0  0  0
 34 38  1  0  0  0  0
 35 39  4  0  0  0  0
 36 40  4  0  0  0  0
 37 41  1  0  0  0  0
 37 43  2  0  0  0  0
M  END
$$$$
