complex
  PyMOL3.0          3D                             0

 24 23  0  0  0  0  0  0  0  0999 V2000
   10.2270   -5.4720  -32.1080 C   0  0  0  0  0  0  0  0  0  0  0  0
    8.9820   -5.4450  -32.8220 O   0  0  0  0  0  0  0  0  0  0  0  0
   10.0120   -4.8960  -30.7270 C   0  0  0  0  0  0  0  0  0  0  0  0
    9.2930   -3.6610  -30.8010 O   0  0  0  0  0  0  0  0  0  0  0  0
    9.2520   -2.9520  -29.5790 C   0  0  0  0  0  0  0  0  0  0  0  0
    7.6890   -1.3690  -30.4380 O   0  0  0  0  0  0  0  0  0  0  0  0
    8.9540   -1.4770  -29.8160 C   0  0  0  0  0  0  0  0  0  0  0  0
    5.3480   -0.7530  -31.8080 O   0  0  0  0  0  0  0  0  0  0  0  0
    7.1850   -0.0380  -30.4690 C   0  0  0  0  0  0  0  0  0  0  0  0
    5.6790   -0.1350  -30.5670 C   0  0  0  0  0  0  0  0  0  0  0  0
    9.0970   -5.9840  -33.6230 H   0  0  0  0  0  0  0  0  0  0  0  0
    4.3810   -0.8040  -31.8650 H   0  0  0  0  0  0  0  0  0  0  0  0
   11.0000   -4.8740  -32.6130 H   0  0  0  0  0  0  0  0  0  0  0  0
    9.4550   -5.6310  -30.1180 H   0  0  0  0  0  0  0  0  0  0  0  0
   10.2160   -3.0350  -29.0510 H   0  0  0  0  0  0  0  0  0  0  0  0
    8.9660   -0.9420  -28.8500 H   0  0  0  0  0  0  0  0  0  0  0  0
    7.4590    0.5200  -29.5580 H   0  0  0  0  0  0  0  0  0  0  0  0
    5.3080   -0.7210  -29.7090 H   0  0  0  0  0  0  0  0  0  0  0  0
   10.6110   -6.4970  -31.9970 H   0  0  0  0  0  0  0  0  0  0  0  0
   10.9950   -4.7430  -30.2480 H   0  0  0  0  0  0  0  0  0  0  0  0
    8.4710   -3.3660  -28.9190 H   0  0  0  0  0  0  0  0  0  0  0  0
    9.7450   -1.0410  -30.4510 H   0  0  0  0  0  0  0  0  0  0  0  0
    7.5750    0.5230  -31.3340 H   0  0  0  0  0  0  0  0  0  0  0  0
    5.2560    0.8800  -30.4920 H   0  0  0  0  0  0  0  0  0  0  0  0
  1  2  1  0  0  0  0
  1  3  1  0  0  0  0
  1 13  1  0  0  0  0
  1 19  1  0  0  0  0
  2 11  1  0  0  0  0
  3  4  1  0  0  0  0
  3 14  1  0  0  0  0
  3 20  1  0  0  0  0
  4  5  1  0  0  0  0
  5  7  1  0  0  0  0
  5 15  1  0  0  0  0
  5 21  1  0  0  0  0
  6  7  1  0  0  0  0
  6  9  1  0  0  0  0
  7 16  1  0  0  0  0
  7 22  1  0  0  0  0
  8 10  1  0  0  0  0
  8 12  1  0  0  0  0
  9 10  1  0  0  0  0
  9 17  1  0  0  0  0
  9 23  1  0  0  0  0
 10 18  1  0  0  0  0
 10 24  1  0  0  0  0
M  END
$$$$
