complex
  PyMOL3.0          3D                             0

 44 48  0  0  0  0  0  0  0  0999 V2000
  202.3100  251.9040  223.5780 P   0  0  0  0  0  0  0  0  0  0  0  0
  203.2940  252.6350  226.2750 P   0  0  0  0  0  0  0  0  0  0  0  0
  201.7670  245.9150  222.8850 C   0  0  0  0  0  0  0  0  0  0  0  0
  200.7960  252.2750  230.9490 C   0  0  0  0  0  0  0  0  0  0  0  0
  200.6280  241.1640  224.5430 N   0  0  0  0  0  0  0  0  0  0  0  0
  201.2710  253.4740  231.6960 N   0  0  0  0  0  0  0  0  0  0  0  0
  200.9100  251.9670  223.0650 O   0  5  0  0  0  0  0  0  0  0  0  0
  203.4150  254.1130  226.1010 O   0  5  0  0  0  0  0  0  0  0  0  0
  201.7950  241.7900  224.3520 C   0  0  0  0  0  0  0  0  0  0  0  0
  201.4910  246.7540  221.6460 C   0  0  0  0  0  0  0  0  0  0  0  0
  199.9210  252.6420  229.7600 C   0  0  0  0  0  0  0  0  0  0  0  0
  201.2330  253.4890  233.0680 C   0  0  0  0  0  0  0  0  0  0  0  0
  203.3090  252.8620  223.0180 O   0  0  0  0  0  0  0  0  0  0  0  0
  201.6060  246.0460  220.4310 O   0  0  0  0  0  0  0  0  0  0  0  0
  198.6140  253.0410  230.1400 O   0  0  0  0  0  0  0  0  0  0  0  0
  204.5450  251.8220  226.2600 O   0  0  0  0  0  0  0  0  0  0  0  0
  202.5520  247.8430  221.8360 C   0  0  0  0  0  0  0  0  0  0  0  0
  199.9680  251.3500  228.9390 C   0  0  0  0  0  0  0  0  0  0  0  0
  201.6570  254.6100  233.7690 C   0  0  0  0  0  0  0  0  0  0  0  0
  202.0260  243.0270  223.9230 N   0  0  0  0  0  0  0  0  0  0  0  0
  202.2780  252.0570  225.1750 O   0  0  0  0  0  0  0  0  0  0  0  0
  203.8050  247.3670  221.3620 O   0  0  0  0  0  0  0  0  0  0  0  0
  199.0420  250.3980  229.4450 O   0  0  0  0  0  0  0  0  0  0  0  0
  200.8750  243.6710  223.6660 C   0  0  0  0  0  0  0  0  0  0  0  0
  202.6080  248.0050  223.3650 C   0  0  0  0  0  0  0  0  0  0  0  0
  201.4020  250.8650  229.2030 C   0  0  0  0  0  0  0  0  0  0  0  0
  202.1410  255.7050  233.0650 C   0  0  0  0  0  0  0  0  0  0  0  0
  201.8530  246.8840  223.8990 O   0  0  0  0  0  0  0  0  0  0  0  0
  201.8990  251.7000  230.2710 O   0  0  0  0  0  0  0  0  0  0  0  0
  199.6010  243.1610  223.8140 C   0  0  0  0  0  0  0  0  0  0  0  0
  202.0660  249.2990  223.9220 C   0  0  0  0  0  0  0  0  0  0  0  0
  202.3530  250.9420  228.0350 C   0  0  0  0  0  0  0  0  0  0  0  0
  202.1940  255.6660  231.6900 C   0  0  0  0  0  0  0  0  0  0  0  0
  202.8520  250.4050  223.4020 O   0  0  0  0  0  0  0  0  0  0  0  0
  202.4820  252.3220  227.6200 O   0  0  0  0  0  0  0  0  0  0  0  0
  199.4840  241.8370  224.2790 C   0  0  0  0  0  0  0  0  0  0  0  0
  201.7500  254.5450  231.0260 C   0  0  0  0  0  0  0  0  0  0  0  0
  198.3220  241.2190  224.4650 N   0  0  0  0  0  0  0  0  0  0  0  0
  201.5850  254.5880  235.2750 C   0  0  0  0  0  0  0  0  0  0  0  0
  198.6560  244.1100  223.4540 N   0  0  0  0  0  0  0  0  0  0  0  0
  201.9070  255.6980  235.9210 N   0  0  0  0  0  0  0  0  0  0  0  0
  201.2350  253.5600  235.8480 O   0  0  0  0  0  0  0  0  0  0  0  0
  199.3620  245.1530  223.0970 C   0  0  0  0  0  0  0  0  0  0  0  0
  200.7150  244.9580  223.2100 N   0  0  0  0  0  0  0  0  0  0  0  0
  1  7  1  0  0  0  0
  1 13  2  0  0  0  0
  1 21  1  0  0  0  0
  1 34  1  0  0  0  0
  2  8  1  0  0  0  0
  2 16  2  0  0  0  0
  2 21  1  0  0  0  0
  2 35  1  0  0  0  0
  3 10  1  0  0  0  0
  3 28  1  0  0  0  0
  3 44  1  0  0  0  0
  4  6  1  0  0  0  0
  4 11  1  0  0  0  0
  4 29  1  0  0  0  0
  5  9  4  0  0  0  0
  5 36  4  0  0  0  0
  6 12  4  0  0  0  0
  6 37  4  0  0  0  0
  9 20  4  0  0  0  0
 10 14  1  0  0  0  0
 10 17  1  0  0  0  0
 11 15  1  0  0  0  0
 11 18  1  0  0  0  0
 12 19  4  0  0  0  0
 17 22  1  0  0  0  0
 17 25  1  0  0  0  0
 18 23  1  0  0  0  0
 18 26  1  0  0  0  0
 19 27  4  0  0  0  0
 19 39  1  0  0  0  0
 20 24  4  0  0  0  0
 24 30  4  0  0  0  0
 24 44  4  0  0  0  0
 25 28  1  0  0  0  0
 25 31  1  0  0  0  0
 26 29  1  0  0  0  0
 26 32  1  0  0  0  0
 27 33  4  0  0  0  0
 30 36  4  0  0  0  0
 30 40  4  0  0  0  0
 31 34  1  0  0  0  0
 32 35  1  0  0  0  0
 33 37  4  0  0  0  0
 36 38  1  0  0  0  0
 39 41  1  0  0  0  0
 39 42  2  0  0  0  0
 40 43  4  0  0  0  0
 43 44  4  0  0  0  0
M  END
$$$$
