complex
  PyMOL3.0          3D                             0

  4  3  0  0  0  0  0  0  0  0999 V2000
   -8.2940   57.1290    8.7170 C   0  0  0  0  0  0  0  0  0  0  0  0
   -7.7280   56.1930    9.6170 O   0  0  0  0  0  0  0  0  0  0  0  0
   -8.7750   56.4970    7.4700 C   0  0  0  0  0  0  0  0  0  0  0  0
   -9.5750   57.2980    6.6620 O   0  0  0  0  0  0  0  0  0  0  0  0
  1  2  1  0  0  0  0
  1  3  1  0  0  0  0
  3  4  1  0  0  0  0
M  END
$$$$
