complex
  PyMOL3.0          3D                             0

 34 39  0  0  0  0  0  0  0  0999 V2000
  -34.4510   72.4160   37.1040 C   0  0  0  0  0  0  0  0  0  0  0  0
  -35.4490   73.1280   36.2870 C   0  0  0  0  0  0  0  0  0  0  0  0
  -34.8680   71.8320   38.6810 S   0  0  0  0  0  0  0  0  0  0  0  0
  -33.1570   72.3420   36.8420 N   0  0  0  0  0  0  0  0  0  0  0  0
  -36.8010   72.8300   36.1870 C   0  0  0  0  0  0  0  0  0  0  0  0
  -34.9990   74.2830   35.6570 C   0  0  0  0  0  0  0  0  0  0  0  0
  -33.2120   71.5340   39.0320 C   0  0  0  0  0  0  0  0  0  0  0  0
  -32.4640   71.8230   37.9080 C   0  0  0  0  0  0  0  0  0  0  0  0
  -37.2950   71.6310   36.7960 C   0  0  0  0  0  0  0  0  0  0  0  0
  -37.6640   73.6490   35.4750 C   0  0  0  0  0  0  0  0  0  0  0  0
  -35.8350   75.1100   34.9170 C   0  0  0  0  0  0  0  0  0  0  0  0
  -32.6360   71.0720   40.1930 C   0  0  0  0  0  0  0  0  0  0  0  0
  -31.0950   71.6660   37.9710 C   0  0  0  0  0  0  0  0  0  0  0  0
  -38.0980   71.5650   37.9020 N   0  0  0  0  0  0  0  0  0  0  0  0
  -37.0010   70.4110   36.4180 N   0  0  0  0  0  0  0  0  0  0  0  0
  -37.1850   74.7910   34.8480 C   0  0  0  0  0  0  0  0  0  0  0  0
  -31.2660   70.9040   40.2270 C   0  0  0  0  0  0  0  0  0  0  0  0
  -30.4960   71.1980   39.1180 C   0  0  0  0  0  0  0  0  0  0  0  0
  -38.3140   70.2750   38.1910 N   0  0  0  0  0  0  0  0  0  0  0  0
  -37.6390   69.5770   37.2840 N   0  0  0  0  0  0  0  0  0  0  0  0
  -30.6190   70.4400   41.4800 C   0  0  0  0  0  0  0  0  0  0  0  0
  -30.2790   69.0500   41.6890 N   0  0  0  0  0  0  0  0  0  0  0  0
  -29.0950   68.5660   41.2160 C   0  0  0  0  0  0  0  0  0  0  0  0
  -31.1160   68.2130   42.4070 C   0  0  0  0  0  0  0  0  0  0  0  0
  -28.7620   67.1560   41.4680 C   0  0  0  0  0  0  0  0  0  0  0  0
  -28.1290   69.1080   40.5420 N   0  0  0  0  0  0  0  0  0  0  0  0
  -30.8380   66.9210   42.6420 C   0  0  0  0  0  0  0  0  0  0  0  0
  -27.5530   66.9510   40.8900 N   0  0  0  0  0  0  0  0  0  0  0  0
  -29.6080   66.3590   42.1540 C   0  0  0  0  0  0  0  0  0  0  0  0
  -27.2360   68.0990   40.3790 C   0  0  0  0  0  0  0  0  0  0  0  0
  -29.3380   64.9090   42.4610 C   0  0  0  0  0  0  0  0  0  0  0  0
  -25.9470   68.3440   39.6030 C   0  0  0  0  0  0  0  0  0  0  0  0
  -24.7290   68.3920   40.5090 C   0  0  0  0  0  0  0  0  0  0  0  0
  -23.4390   68.4270   39.7180 C   0  0  0  0  0  0  0  0  0  0  0  0
  1  2  1  0  0  0  0
  1  3  4  0  0  0  0
  1  4  4  0  0  0  0
  2  5  4  0  0  0  0
  2  6  4  0  0  0  0
  3  7  4  0  0  0  0
  4  8  4  0  0  0  0
  5  9  1  0  0  0  0
  5 10  4  0  0  0  0
  6 11  4  0  0  0  0
  7  8  4  0  0  0  0
  7 12  4  0  0  0  0
  8 13  4  0  0  0  0
  9 14  4  0  0  0  0
  9 15  4  0  0  0  0
 10 16  4  0  0  0  0
 11 16  4  0  0  0  0
 12 17  4  0  0  0  0
 13 18  4  0  0  0  0
 14 19  4  0  0  0  0
 15 20  4  0  0  0  0
 17 18  4  0  0  0  0
 17 21  1  0  0  0  0
 19 20  4  0  0  0  0
 21 22  1  0  0  0  0
 22 23  4  0  0  0  0
 22 24  4  0  0  0  0
 23 25  4  0  0  0  0
 23 26  4  0  0  0  0
 24 27  4  0  0  0  0
 25 28  4  0  0  0  0
 25 29  4  0  0  0  0
 26 30  4  0  0  0  0
 27 29  4  0  0  0  0
 28 30  4  0  0  0  0
 29 31  1  0  0  0  0
 30 32  1  0  0  0  0
 32 33  1  0  0  0  0
 33 34  1  0  0  0  0
M  END
$$$$
