complex
  PyMOL3.0          3D                             0

  4  3  0  0  0  0  0  0  0  0999 V2000
  -13.7290   15.5140   15.0780 C   0  0  0  0  0  0  0  0  0  0  0  0
  -15.1270   15.2430   15.1790 O   0  0  0  0  0  0  0  0  0  0  0  0
  -13.4890   16.4100   13.8680 C   0  0  0  0  0  0  0  0  0  0  0  0
  -12.0810   16.5410   13.6580 O   0  0  0  0  0  0  0  0  0  0  0  0
  1  2  1  0  0  0  0
  1  3  1  0  0  0  0
  3  4  1  0  0  0  0
M  END
$$$$
