complex
  PyMOL3.0          3D                             0

 17 26  0  0  0  0  0  0  0  0999 V2000
  -78.3150  -45.5770  -13.2540 S   0  0  0  0  0  0  0  0  0  0  0  0
  -79.8670  -48.3830  -14.8500 S   0  0  0  0  0  0  0  0  0  0  0  0
  -81.5810  -45.0710  -14.3090 S   0  0  0  0  0  0  0  0  0  0  0  0
  -79.2370  -45.4830  -16.8340 S   0  0  0  0  0  0  0  0  0  0  0  0
  -85.2340  -49.5810  -18.6450 S   0  0  0  0  0  0  0  0  0  0  0  0
  -81.6550  -50.4190  -18.6870 S   0  0  0  0  0  0  0  0  0  0  0  0
  -83.4190  -50.4710  -15.4930 S   0  0  0  0  0  0  0  0  0  0  0  0
  -84.3140  -53.0400  -17.9060 S   0  0  0  0  0  0  0  0  0  0  0  0
  -82.7650  -47.0620  -17.0440 S   0  0  0  0  0  0  0  0  0  0  0  0
  -80.9360  -46.5680  -15.8690 Fe  0  0  0  0  0  0  0  0  0  0  0  0
  -79.5560  -44.4820  -14.8020 Fe  0  0  0  0  0  0  0  0  0  0  0  0
  -78.3450  -46.8080  -15.1580 Fe  0  0  0  0  0  0  0  0  0  0  0  0
  -80.2220  -46.6180  -13.3120 Fe  0  0  0  0  0  0  0  0  0  0  0  0
  -82.4620  -51.8580  -17.0120 Fe  0  0  0  0  0  0  0  0  0  0  0  0
  -85.2330  -51.1180  -16.9410 Fe  0  0  0  0  0  0  0  0  0  0  0  0
  -83.7930  -51.2430  -19.2480 Fe  0  0  0  0  0  0  0  0  0  0  0  0
  -83.2080  -49.2400  -17.3930 Fe  0  0  0  0  0  0  0  0  0  0  0  0
  1 11  1  0  0  0  0
  1 12  1  0  0  0  0
  1 13  1  0  0  0  0
  2 10  1  0  0  0  0
  2 12  1  0  0  0  0
  2 13  1  0  0  0  0
  3 10  1  0  0  0  0
  3 11  1  0  0  0  0
  3 13  1  0  0  0  0
  4 10  1  0  0  0  0
  4 11  1  0  0  0  0
  4 12  1  0  0  0  0
  5 15  1  0  0  0  0
  5 16  1  0  0  0  0
  5 17  1  0  0  0  0
  6 14  1  0  0  0  0
  6 16  1  0  0  0  0
  6 17  1  0  0  0  0
  7 14  1  0  0  0  0
  7 15  1  0  0  0  0
  7 17  1  0  0  0  0
  8 14  1  0  0  0  0
  8 15  1  0  0  0  0
  8 16  1  0  0  0  0
  9 10  1  0  0  0  0
  9 17  1  0  0  0  0
M  END
$$$$
