complex
  PyMOL3.0          3D                             0

  4  3  0  0  0  0  0  0  0  0999 V2000
   38.4810   61.7930    2.9830 C   0  0  0  0  0  0  0  0  0  0  0  0
   39.4930   61.1410    3.7270 O   0  0  0  0  0  0  0  0  0  0  0  0
   38.8700   63.1410    2.5080 C   0  0  0  0  0  0  0  0  0  0  0  0
   37.8510   64.1200    2.6720 O   0  0  0  0  0  0  0  0  0  0  0  0
  1  2  1  0  0  0  0
  1  3  1  0  0  0  0
  3  4  1  0  0  0  0
M  END
$$$$
