complex
  PyMOL3.0          3D                             0

 31 34  0  0  0  0  0  0  0  0999 V2000
  -37.6710    6.1040   28.3990 N   0  0  0  0  0  0  0  0  0  0  0  0
  -37.7160    7.5190   28.0520 C   0  0  0  0  0  0  0  0  0  0  0  0
  -37.8600    0.0150   28.9460 O   0  0  0  0  0  0  0  0  0  0  0  0
  -37.6520    5.0580   27.5660 C   0  0  0  0  0  0  0  0  0  0  0  0
  -37.5900    2.5730   28.0520 N   0  0  0  0  0  0  0  0  0  0  0  0
  -39.0090   -4.1980   20.5740 O   0  0  0  0  0  0  0  0  0  0  0  0
  -37.5870    3.9420   28.3480 C   0  0  0  0  0  0  0  0  0  0  0  0
  -37.7130    2.7740   25.7020 N   0  0  0  0  0  0  0  0  0  0  0  0
  -37.7120    1.9750   26.7860 C   0  0  0  0  0  0  0  0  0  0  0  0
  -37.7660    0.0140   25.4100 N   0  0  0  0  0  0  0  0  0  0  0  0
  -37.7180    2.1930   24.4920 C   0  0  0  0  0  0  0  0  0  0  0  0
  -37.7240   -1.6910   27.4580 N   0  0  0  0  0  0  0  0  0  0  0  0
  -37.7220    0.8120   24.3340 C   0  0  0  0  0  0  0  0  0  0  0  0
  -37.2680   -3.4050   21.7610 N   0  0  0  0  0  0  0  0  0  0  0  0
  -37.7540    0.5810   26.6240 C   0  0  0  0  0  0  0  0  0  0  0  0
  -37.6230    5.7200   29.7050 N   0  0  0  0  0  0  0  0  0  0  0  0
  -37.7920   -0.3890   27.7780 C   0  0  0  0  0  0  0  0  0  0  0  0
  -37.5940    0.1490   23.0130 C   0  0  0  0  0  0  0  0  0  0  0  0
  -37.7090    0.8250   21.8310 C   0  0  0  0  0  0  0  0  0  0  0  0
  -37.5710    0.1860   20.4730 C   0  0  0  0  0  0  0  0  0  0  0  0
  -37.1040   -1.2680   20.5540 C   0  0  0  0  0  0  0  0  0  0  0  0
  -37.7130   -2.0130   21.7370 C   0  0  0  0  0  0  0  0  0  0  0  0
  -37.3040   -1.3310   23.0420 C   0  0  0  0  0  0  0  0  0  0  0  0
  -37.9640   -4.3970   21.1870 C   0  0  0  0  0  0  0  0  0  0  0  0
  -37.4000   -5.7750   21.3050 C   0  0  0  0  0  0  0  0  0  0  0  0
  -36.6860   -6.1630   22.4360 C   0  0  0  0  0  0  0  0  0  0  0  0
  -36.1320   -7.4280   22.5170 C   0  0  0  0  0  0  0  0  0  0  0  0
  -36.2860   -8.3230   21.4780 C   0  0  0  0  0  0  0  0  0  0  0  0
  -36.9950   -7.9520   20.3540 C   0  0  0  0  0  0  0  0  0  0  0  0
  -37.5470   -6.6840   20.2610 C   0  0  0  0  0  0  0  0  0  0  0  0
  -37.5770    4.3990   29.6710 C   0  0  0  0  0  0  0  0  0  0  0  0
  1  2  1  0  0  0  0
  1  4  4  0  0  0  0
  1 16  4  0  0  0  0
  3 17  2  0  0  0  0
  4  7  4  0  0  0  0
  5  7  1  0  0  0  0
  5  9  1  0  0  0  0
  6 24  2  0  0  0  0
  7 31  4  0  0  0  0
  8  9  4  0  0  0  0
  8 11  4  0  0  0  0
  9 15  4  0  0  0  0
 10 13  4  0  0  0  0
 10 15  4  0  0  0  0
 11 13  4  0  0  0  0
 12 17  1  0  0  0  0
 13 18  1  0  0  0  0
 14 22  1  0  0  0  0
 14 24  1  0  0  0  0
 15 17  1  0  0  0  0
 16 31  4  0  0  0  0
 18 19  1  0  0  0  0
 18 23  1  0  0  0  0
 19 20  1  0  0  0  0
 20 21  1  0  0  0  0
 21 22  1  0  0  0  0
 22 23  1  0  0  0  0
 24 25  1  0  0  0  0
 25 26  4  0  0  0  0
 25 30  4  0  0  0  0
 26 27  4  0  0  0  0
 27 28  4  0  0  0  0
 28 29  4  0  0  0  0
 29 30  4  0  0  0  0
M  END
$$$$
