complex
  PyMOL3.0          3D                             0

  7  6  0  0  0  0  0  0  0  0999 V2000
    2.2590   13.5410   34.1300 C   0  0  0  0  0  0  0  0  0  0  0  0
    3.5060   13.0560   34.5840 O   0  0  0  0  0  0  0  0  0  0  0  0
    1.5540   12.5550   33.2560 C   0  0  0  0  0  0  0  0  0  0  0  0
    0.6170   11.8080   34.0220 O   0  0  0  0  0  0  0  0  0  0  0  0
    0.1410   10.6570   33.3360 C   0  0  0  0  0  0  0  0  0  0  0  0
    1.1910    9.5930   33.3360 C   0  0  0  0  0  0  0  0  0  0  0  0
    1.2450    8.8930   34.5610 O   0  0  0  0  0  0  0  0  0  0  0  0
  1  2  1  0  0  0  0
  1  3  1  0  0  0  0
  3  4  1  0  0  0  0
  4  5  1  0  0  0  0
  5  6  1  0  0  0  0
  6  7  1  0  0  0  0
M  END
$$$$
