complex
  PyMOL3.0          3D                             0

 12 11  0  0  0  0  0  0  0  0999 V2000
  -19.6070   -7.9420   50.9360 N   0  0  0  0  0  0  0  0  0  0  0  0
  -19.5010   -9.3410   50.5220 C   0  0  0  0  0  0  0  0  0  0  0  0
  -19.6050   -9.4760   49.0080 C   0  0  0  0  0  0  0  0  0  0  0  0
  -19.0300  -10.3890   48.4150 O   0  0  0  0  0  0  0  0  0  0  0  0
  -20.5810  -10.1920   51.1910 C   0  0  0  0  0  0  0  0  0  0  0  0
  -20.2590  -10.5980   52.6130 C   0  0  0  0  0  0  0  0  0  0  0  0
  -21.2810  -11.5840   53.1570 C   0  0  0  0  0  0  0  0  0  0  0  0
  -20.9280  -12.0400   54.5670 C   0  0  0  0  0  0  0  0  0  0  0  0
  -20.9640  -10.9240   55.5530 N   0  0  0  0  0  0  0  0  0  0  0  0
  -19.8530  -10.2710   55.8830 C   0  0  0  0  0  0  0  0  0  0  0  0
  -18.7680  -10.5870   55.3720 O   0  0  0  0  0  0  0  0  0  0  0  0
  -19.9050   -9.3430   56.7030 O   0  0  0  0  0  0  0  0  0  0  0  0
  1  2  1  0  0  0  0
  2  3  1  0  0  0  0
  2  5  1  0  0  0  0
  3  4  2  0  0  0  0
  5  6  1  0  0  0  0
  6  7  1  0  0  0  0
  7  8  1  0  0  0  0
  8  9  1  0  0  0  0
  9 10  1  0  0  0  0
 10 11  4  0  0  0  0
 10 12  4  0  0  0  0
M  END
$$$$
