complex
  PyMOL3.0          3D                             0

 14 14  0  0  0  0  0  0  0  0999 V2000
   -9.6520  -10.3190   10.9500 C   0  0  0  0  0  0  0  0  0  0  0  0
  -11.0270  -11.0120   11.0010 C   0  0  0  0  0  0  0  0  0  0  0  0
  -11.8730  -10.4470   12.0400 N   0  0  0  0  0  0  0  0  0  0  0  0
  -10.8640  -12.5130   11.2190 C   0  0  0  0  0  0  0  0  0  0  0  0
  -12.1400  -13.1400   11.1420 O   0  0  0  0  0  0  0  0  0  0  0  0
   -9.9270  -13.1090   10.1790 C   0  0  0  0  0  0  0  0  0  0  0  0
   -9.7090  -14.4870   10.4580 O   0  0  0  0  0  0  0  0  0  0  0  0
   -8.5950  -12.3700   10.2000 C   0  0  0  0  0  0  0  0  0  0  0  0
   -8.8140  -10.9700    9.9700 O   0  0  0  0  0  0  0  0  0  0  0  0
   -7.6430  -12.8450    9.1260 C   0  0  0  0  0  0  0  0  0  0  0  0
   -6.3200  -12.3850    9.3620 O   0  0  0  0  0  0  0  0  0  0  0  0
  -12.4670   -9.2550   11.9460 C   0  0  0  0  0  0  0  0  0  0  0  0
  -12.3180   -8.5300   10.9700 O   0  0  0  0  0  0  0  0  0  0  0  0
  -13.3140   -8.8540   13.1120 C   0  0  0  0  0  0  0  0  0  0  0  0
  1  2  1  0  0  0  0
  1  9  1  0  0  0  0
  2  3  1  0  0  0  0
  2  4  1  0  0  0  0
  3 12  1  0  0  0  0
  4  5  1  0  0  0  0
  4  6  1  0  0  0  0
  6  7  1  0  0  0  0
  6  8  1  0  0  0  0
  8  9  1  0  0  0  0
  8 10  1  0  0  0  0
 10 11  1  0  0  0  0
 12 13  2  0  0  0  0
 12 14  1  0  0  0  0
M  END
$$$$
