complex
  PyMOL3.0          3D                             0

  5  4  0  0  0  0  0  0  0  0999 V2000
   25.5210    2.8270   21.9760 P   0  0  0  0  0  0  0  0  0  0  0  0
   24.5930    2.1320   20.9780 O   0  0  0  0  0  0  0  0  0  0  0  0
   26.3450    3.8770   21.2520 O   0  0  0  0  0  0  0  0  0  0  0  0
   26.4580    1.8090   22.6090 O   0  5  0  0  0  0  0  0  0  0  0  0
   24.6920    3.4920   23.0650 O   0  0  0  0  0  0  0  0  0  0  0  0
  1  2  1  0  0  0  0
  1  3  1  0  0  0  0
  1  4  1  0  0  0  0
  1  5  2  0  0  0  0
M  END
$$$$
