complex
  PyMOL3.0          3D                             0

 16 17  0  0  0  0  0  0  0  0999 V2000
   -5.2550  -26.4390  -16.8740 Se  0  0  0  0  0  0  0  0  0  0  0  0
   -4.1100  -24.9940  -16.2330 C   0  0  0  0  0  0  0  0  0  0  0  0
   -4.6460  -23.7340  -16.0240 C   0  0  0  0  0  0  0  0  0  0  0  0
   -3.8390  -22.7040  -15.5670 C   0  0  0  0  0  0  0  0  0  0  0  0
   -2.4960  -22.9330  -15.3170 C   0  0  0  0  0  0  0  0  0  0  0  0
   -1.9600  -24.1930  -15.5240 C   0  0  0  0  0  0  0  0  0  0  0  0
   -2.7660  -25.2240  -15.9810 C   0  0  0  0  0  0  0  0  0  0  0  0
   -2.1660  -26.6130  -16.2070 C   0  0  0  0  0  0  0  0  0  0  0  0
   -2.1890  -27.0900  -17.2920 O   0  0  0  0  0  0  0  0  0  0  0  0
   -1.5790  -27.3250  -15.0810 N   0  0  0  0  0  0  0  0  0  0  0  0
   -0.9890  -28.6510  -15.1920 C   0  0  0  0  0  0  0  0  0  0  0  0
   -1.2120  -29.5630  -14.2110 C   0  0  0  0  0  0  0  0  0  0  0  0
   -0.7040  -30.8210  -14.2230 C   0  0  0  0  0  0  0  0  0  0  0  0
    0.0920  -31.2220  -15.2840 C   0  0  0  0  0  0  0  0  0  0  0  0
    0.3570  -30.3080  -16.3290 C   0  0  0  0  0  0  0  0  0  0  0  0
   -0.1930  -29.0080  -16.2700 C   0  0  0  0  0  0  0  0  0  0  0  0
  1  2  1  0  0  0  0
  2  3  4  0  0  0  0
  2  7  4  0  0  0  0
  3  4  4  0  0  0  0
  4  5  4  0  0  0  0
  5  6  4  0  0  0  0
  6  7  4  0  0  0  0
  7  8  1  0  0  0  0
  8  9  2  0  0  0  0
  8 10  1  0  0  0  0
 10 11  1  0  0  0  0
 11 12  4  0  0  0  0
 11 16  4  0  0  0  0
 12 13  4  0  0  0  0
 13 14  4  0  0  0  0
 14 15  4  0  0  0  0
 15 16  4  0  0  0  0
M  END
$$$$
