complex
  PyMOL3.0          3D                             0

 48 50  0  0  0  0  0  0  0  0999 V2000
  -33.1240   -2.4830   24.4200 C   0  0  0  0  0  0  0  0  0  0  0  0
  -31.7600   -2.7680   24.4920 O   0  0  0  0  0  0  0  0  0  0  0  0
  -33.4510   -1.3690   23.3970 C   0  0  0  0  0  0  0  0  0  0  0  0
  -34.6850   -1.7200   22.5820 C   0  0  0  0  0  0  0  0  0  0  0  0
  -33.6530   -0.0500   24.0970 C   0  0  0  0  0  0  0  0  0  0  0  0
  -30.3300    2.5850   23.0110 P   0  0  0  0  0  0  0  0  0  0  0  0
  -30.8710    0.5640   21.3780 P   0  0  0  0  0  0  0  0  0  0  0  0
  -31.5870    8.5370   24.3900 P   0  0  0  0  0  0  0  0  0  0  0  0
  -39.6080   -1.2520   33.0900 S   0  0  0  0  0  0  0  0  0  0  0  0
  -39.1460   -1.3250   31.3320 C   0  0  0  0  0  0  0  0  0  0  0  0
  -37.8600   -2.1190   31.2060 C   0  0  0  0  0  0  0  0  0  0  0  0
  -37.5790   -2.3700   29.7950 N   0  0  0  0  0  0  0  0  0  0  0  0
  -36.2830   -2.7340   29.4470 C   0  0  0  0  0  0  0  0  0  0  0  0
  -35.4310   -2.8350   30.3130 O   0  0  0  0  0  0  0  0  0  0  0  0
  -36.0450   -2.9860   27.9890 C   0  0  0  0  0  0  0  0  0  0  0  0
  -35.3990   -1.7310   27.4180 C   0  0  0  0  0  0  0  0  0  0  0  0
  -34.9510   -2.0500   26.0780 N   0  0  0  0  0  0  0  0  0  0  0  0
  -33.5830   -2.1360   25.8510 C   0  0  0  0  0  0  0  0  0  0  0  0
  -32.7930   -1.9530   26.7660 O   0  0  0  0  0  0  0  0  0  0  0  0
  -34.2950    5.2430   25.6820 C   0  0  0  0  0  0  0  0  0  0  0  0
  -37.8570    2.9810   28.8170 N   0  0  0  0  0  0  0  0  0  0  0  0
  -31.0900    1.7550   23.9690 O   0  5  0  0  0  0  0  0  0  0  0  0
  -37.4330    4.2820   28.6820 C   0  0  0  0  0  0  0  0  0  0  0  0
  -32.9730    5.3940   26.4700 C   0  0  0  0  0  0  0  0  0  0  0  0
  -28.8390    2.3910   22.8570 O   0  0  0  0  0  0  0  0  0  0  0  0
  -33.1420    6.1430   27.6260 O   0  0  0  0  0  0  0  0  0  0  0  0
  -32.2120    6.1980   25.3970 C   0  0  0  0  0  0  0  0  0  0  0  0
  -36.5180    4.8320   27.8710 N   0  0  0  0  0  0  0  0  0  0  0  0
  -31.0120    2.1510   21.5320 O   0  0  0  0  0  0  0  0  0  0  0  0
  -32.7340    7.4360   25.3290 O   0  0  0  0  0  0  0  0  0  0  0  0
  -35.9330    3.8870   27.0540 C   0  0  0  0  0  0  0  0  0  0  0  0
  -32.5900    5.3920   24.1510 C   0  0  0  0  0  0  0  0  0  0  0  0
  -30.8120    0.2260   19.9420 O   0  5  0  0  0  0  0  0  0  0  0  0
  -33.9930    5.1190   24.2880 O   0  0  0  0  0  0  0  0  0  0  0  0
  -36.2660    2.4940   27.0740 C   0  0  0  0  0  0  0  0  0  0  0  0
  -31.8240    4.0830   24.1410 C   0  0  0  0  0  0  0  0  0  0  0  0
  -29.9510   -0.1020   22.3770 O   0  0  0  0  0  0  0  0  0  0  0  0
  -30.7410    4.1530   23.2530 O   0  0  0  0  0  0  0  0  0  0  0  0
  -37.2490    2.0870   27.9870 C   0  0  0  0  0  0  0  0  0  0  0  0
  -37.6140    0.7710   28.0570 N   0  0  0  0  0  0  0  0  0  0  0  0
  -32.4500   -0.0360   21.7810 O   0  0  0  0  0  0  0  0  0  0  0  0
  -35.5180    1.7800   26.1430 N   0  0  0  0  0  0  0  0  0  0  0  0
  -32.4000    8.5410   23.1430 O   0  0  0  0  0  0  0  0  0  0  0  0
  -34.7540    2.7270   25.5770 C   0  0  0  0  0  0  0  0  0  0  0  0
  -30.2690    7.7600   24.3700 O   0  5  0  0  0  0  0  0  0  0  0  0
  -34.9630    4.0010   26.0870 N   0  0  0  0  0  0  0  0  0  0  0  0
  -31.6710    9.7810   25.2420 O   0  0  0  0  0  0  0  0  0  0  0  0
  -32.2610   -1.2140   22.4640 C   0  0  0  0  0  0  0  0  0  0  0  0
  1  2  1  0  0  0  0
  1  3  1  0  0  0  0
  1 18  1  0  0  0  0
  3  4  1  0  0  0  0
  3  5  1  0  0  0  0
  3 48  1  0  0  0  0
  6 22  1  0  0  0  0
  6 25  2  0  0  0  0
  6 29  1  0  0  0  0
  6 38  1  0  0  0  0
  7 29  1  0  0  0  0
  7 33  1  0  0  0  0
  7 37  2  0  0  0  0
  7 41  1  0  0  0  0
  8 30  1  0  0  0  0
  8 43  1  0  0  0  0
  8 45  1  0  0  0  0
  8 47  2  0  0  0  0
  9 10  1  0  0  0  0
 10 11  1  0  0  0  0
 11 12  1  0  0  0  0
 12 13  1  0  0  0  0
 13 14  2  0  0  0  0
 13 15  1  0  0  0  0
 15 16  1  0  0  0  0
 16 17  1  0  0  0  0
 17 18  1  0  0  0  0
 18 19  2  0  0  0  0
 20 24  1  0  0  0  0
 20 34  1  0  0  0  0
 20 46  1  0  0  0  0
 21 23  4  0  0  0  0
 21 39  4  0  0  0  0
 23 28  4  0  0  0  0
 24 26  1  0  0  0  0
 24 27  1  0  0  0  0
 27 30  1  0  0  0  0
 27 32  1  0  0  0  0
 28 31  4  0  0  0  0
 31 35  4  0  0  0  0
 31 46  4  0  0  0  0
 32 34  1  0  0  0  0
 32 36  1  0  0  0  0
 35 39  4  0  0  0  0
 35 42  4  0  0  0  0
 36 38  1  0  0  0  0
 39 40  1  0  0  0  0
 41 48  1  0  0  0  0
 42 44  4  0  0  0  0
 44 46  4  0  0  0  0
M  END
$$$$
