complex
  PyMOL3.0          3D                             0

 17  0  0  0  0  0  0  0  0  0999 V2000
   24.1450   37.0680    4.8370 C   0  0  0  0  0  0  0  0  0  0  0  0
   26.0660   36.1500    0.4760 O   0  0  0  0  0  0  0  0  0  0  0  0
   25.3340   36.9020    4.0760 C   0  0  0  0  0  0  0  0  0  0  0  0
   28.3070   35.8460    3.9170 O   0  0  0  0  0  0  0  0  0  0  0  0
   25.1120   36.8040    2.5850 C   0  0  0  0  0  0  0  0  0  0  0  0
   29.2360   34.1340    7.3440 O   0  0  0  0  0  0  0  0  0  0  0  0
   26.3400   36.2670    1.8740 C   0  0  0  0  0  0  0  0  0  0  0  0
   24.7100   33.3130    8.0330 O   0  0  0  0  0  0  0  0  0  0  0  0
   26.7250   34.8900    2.3960 C   0  0  0  0  0  0  0  0  0  0  0  0
   27.7980   34.8470    3.4520 C   0  0  0  0  0  0  0  0  0  0  0  0
   28.1430   33.4490    3.9330 C   0  0  0  0  0  0  0  0  0  0  0  0
   29.1100   33.3840    5.0970 C   0  0  0  0  0  0  0  0  0  0  0  0
   28.5370   33.9180    6.3800 C   0  0  0  0  0  0  0  0  0  0  0  0
   27.0520   34.1610    6.4080 C   0  0  0  0  0  0  0  0  0  0  0  0
   26.4920   34.9570    7.5910 C   0  0  0  0  0  0  0  0  0  0  0  0
   26.7710   36.4550    7.4280 C   0  0  0  0  0  0  0  0  0  0  0  0
   25.0080   34.6780    7.7290 C   0  0  0  0  0  0  0  0  0  0  0  0
M  END
$$$$
