complex
  PyMOL3.0          3D                             0

 44 48  0  0  0  0  0  0  0  0999 V2000
  240.1220  250.9820  245.8090 P   0  0  0  0  0  0  0  0  0  0  0  0
  237.2860  250.2520  246.2620 P   0  0  0  0  0  0  0  0  0  0  0  0
  240.9930  256.9710  245.9460 C   0  0  0  0  0  0  0  0  0  0  0  0
  234.4200  250.6130  250.7190 C   0  0  0  0  0  0  0  0  0  0  0  0
  240.1010  261.7220  247.7480 N   0  0  0  0  0  0  0  0  0  0  0  0
  233.5360  249.4150  250.6680 N   0  0  0  0  0  0  0  0  0  0  0  0
  241.2510  250.9190  246.7810 O   0  5  0  0  0  0  0  0  0  0  0  0
  237.3790  248.7750  246.0720 O   0  5  0  0  0  0  0  0  0  0  0  0
  239.6990  261.0960  246.6360 C   0  0  0  0  0  0  0  0  0  0  0  0
  242.2090  256.1320  245.5840 C   0  0  0  0  0  0  0  0  0  0  0  0
  235.8850  250.2450  250.9050 C   0  0  0  0  0  0  0  0  0  0  0  0
  232.3550  249.4000  251.3690 C   0  0  0  0  0  0  0  0  0  0  0  0
  240.1230  250.0250  244.6630 O   0  0  0  0  0  0  0  0  0  0  0  0
  243.2150  256.8400  244.8920 O   0  0  0  0  0  0  0  0  0  0  0  0
  236.1890  249.8460  252.2320 O   0  0  0  0  0  0  0  0  0  0  0  0
  236.6910  251.0660  245.1610 O   0  0  0  0  0  0  0  0  0  0  0  0
  241.5260  255.0440  244.7490 C   0  0  0  0  0  0  0  0  0  0  0  0
  236.5790  251.5380  250.4640 C   0  0  0  0  0  0  0  0  0  0  0  0
  231.5370  248.2790  251.3410 C   0  0  0  0  0  0  0  0  0  0  0  0
  239.9610  259.8590  246.2250 N   0  0  0  0  0  0  0  0  0  0  0  0
  238.7420  250.8300  246.6140 O   0  0  0  0  0  0  0  0  0  0  0  0
  241.3300  255.5190  243.4240 O   0  0  0  0  0  0  0  0  0  0  0  0
  236.5880  252.4890  251.5200 O   0  0  0  0  0  0  0  0  0  0  0  0
  240.7460  259.2150  247.1050 C   0  0  0  0  0  0  0  0  0  0  0  0
  240.1640  254.8820  245.4450 C   0  0  0  0  0  0  0  0  0  0  0  0
  235.6510  252.0230  249.3410 C   0  0  0  0  0  0  0  0  0  0  0  0
  231.9160  247.1840  250.5740 C   0  0  0  0  0  0  0  0  0  0  0  0
  240.0650  256.0020  246.3640 O   0  0  0  0  0  0  0  0  0  0  0  0
  234.4750  251.1880  249.4260 O   0  0  0  0  0  0  0  0  0  0  0  0
  241.2370  259.7250  248.2900 C   0  0  0  0  0  0  0  0  0  0  0  0
  239.9410  253.5870  246.1890 C   0  0  0  0  0  0  0  0  0  0  0  0
  236.2070  251.9460  247.9410 C   0  0  0  0  0  0  0  0  0  0  0  0
  233.0910  247.2230  249.8590 C   0  0  0  0  0  0  0  0  0  0  0  0
  240.0110  252.4820  245.2490 O   0  0  0  0  0  0  0  0  0  0  0  0
  236.5070  250.5650  247.6260 O   0  0  0  0  0  0  0  0  0  0  0  0
  240.8880  261.0490  248.6190 C   0  0  0  0  0  0  0  0  0  0  0  0
  233.8880  248.3430  249.9240 C   0  0  0  0  0  0  0  0  0  0  0  0
  241.2920  261.6670  249.7250 N   0  0  0  0  0  0  0  0  0  0  0  0
  230.2560  248.3010  252.1360 C   0  0  0  0  0  0  0  0  0  0  0  0
  242.0110  258.7760  248.9400 N   0  0  0  0  0  0  0  0  0  0  0  0
  229.5350  247.1910  252.1690 N   0  0  0  0  0  0  0  0  0  0  0  0
  229.9260  249.3300  252.7210 O   0  0  0  0  0  0  0  0  0  0  0  0
  241.9790  257.7330  248.1500 C   0  0  0  0  0  0  0  0  0  0  0  0
  241.2210  257.9280  247.0230 N   0  0  0  0  0  0  0  0  0  0  0  0
  1  7  1  0  0  0  0
  1 13  2  0  0  0  0
  1 21  1  0  0  0  0
  1 34  1  0  0  0  0
  2  8  1  0  0  0  0
  2 16  2  0  0  0  0
  2 21  1  0  0  0  0
  2 35  1  0  0  0  0
  3 10  1  0  0  0  0
  3 28  1  0  0  0  0
  3 44  1  0  0  0  0
  4  6  1  0  0  0  0
  4 11  1  0  0  0  0
  4 29  1  0  0  0  0
  5  9  4  0  0  0  0
  5 36  4  0  0  0  0
  6 12  4  0  0  0  0
  6 37  4  0  0  0  0
  9 20  4  0  0  0  0
 10 14  1  0  0  0  0
 10 17  1  0  0  0  0
 11 15  1  0  0  0  0
 11 18  1  0  0  0  0
 12 19  4  0  0  0  0
 17 22  1  0  0  0  0
 17 25  1  0  0  0  0
 18 23  1  0  0  0  0
 18 26  1  0  0  0  0
 19 27  4  0  0  0  0
 19 39  1  0  0  0  0
 20 24  4  0  0  0  0
 24 30  4  0  0  0  0
 24 44  4  0  0  0  0
 25 28  1  0  0  0  0
 25 31  1  0  0  0  0
 26 29  1  0  0  0  0
 26 32  1  0  0  0  0
 27 33  4  0  0  0  0
 30 36  4  0  0  0  0
 30 40  4  0  0  0  0
 31 34  1  0  0  0  0
 32 35  1  0  0  0  0
 33 37  4  0  0  0  0
 36 38  1  0  0  0  0
 39 41  1  0  0  0  0
 39 42  2  0  0  0  0
 40 43  4  0  0  0  0
 43 44  4  0  0  0  0
M  END
$$$$
