complex
  PyMOL3.0          3D                             0

 14 13  0  0  0  0  0  0  0  0999 V2000
  -24.0770   42.3450   -9.2620 C   0  0  0  0  0  0  0  0  0  0  0  0
  -24.7290   43.5140   -9.7300 O   0  0  0  0  0  0  0  0  0  0  0  0
  -24.6150   41.5900   -8.0020 C   0  0  0  0  0  0  0  0  0  0  0  0
  -24.0250   42.3020   -6.9470 O   0  0  0  0  0  0  0  0  0  0  0  0
  -26.1060   41.6660   -7.5970 C   0  0  0  0  0  0  0  0  0  0  0  0
  -26.4010   40.5170   -6.7990 O   0  0  0  0  0  0  0  0  0  0  0  0
  -24.5740   43.7050  -10.6360 H   0  0  0  0  0  0  0  0  0  0  0  0
  -24.0810   41.8920   -6.1180 H   0  0  0  0  0  0  0  0  0  0  0  0
  -27.0040   39.9250   -7.2020 H   0  0  0  0  0  0  0  0  0  0  0  0
  -24.4160   40.5460   -8.2120 H   0  0  0  0  0  0  0  0  0  0  0  0
  -23.0540   42.6250   -9.0430 H   0  0  0  0  0  0  0  0  0  0  0  0
  -24.0900   41.6340  -10.0790 H   0  0  0  0  0  0  0  0  0  0  0  0
  -26.7290   41.6690   -8.4820 H   0  0  0  0  0  0  0  0  0  0  0  0
  -26.2870   42.5670   -7.0250 H   0  0  0  0  0  0  0  0  0  0  0  0
  1  2  1  0  0  0  0
  1  3  1  0  0  0  0
  1 11  1  0  0  0  0
  1 12  1  0  0  0  0
  2  7  1  0  0  0  0
  3  4  1  0  0  0  0
  3  5  1  0  0  0  0
  3 10  1  0  0  0  0
  4  8  1  0  0  0  0
  5  6  1  0  0  0  0
  5 13  1  0  0  0  0
  5 14  1  0  0  0  0
  6  9  1  0  0  0  0
M  END
$$$$
