complex
  PyMOL3.0          3D                             0

  5  4  0  0  0  0  0  0  0  0999 V2000
   -0.5230  -14.4330   14.2250 O   0  0  0  0  0  0  0  0  0  0  0  0
    0.9520  -12.8700   13.2010 O   0  0  0  0  0  0  0  0  0  0  0  0
    1.8480  -14.6410   14.5290 O   0  5  0  0  0  0  0  0  0  0  0  0
    0.6710  -12.8640   15.5770 O   0  0  0  0  0  0  0  0  0  0  0  0
    0.7320  -13.7050   14.3840 S   0  0  0  0  0  0  0  0  0  0  0  0
  1  5  1  0  0  0  0
  2  5  1  0  0  0  0
  3  5  1  0  0  0  0
  4  5  2  0  0  0  0
M  END
$$$$
