complex
  PyMOL3.0          3D                             0

  5  4  0  0  0  0  0  0  0  0999 V2000
  -36.2280  -85.2030    8.5900 O   0  0  0  0  0  0  0  0  0  0  0  0
  -36.3380  -87.2960    9.8180 O   0  0  0  0  0  0  0  0  0  0  0  0
  -34.3570  -85.9470    9.8460 O   0  5  0  0  0  0  0  0  0  0  0  0
  -36.2910  -85.2340   11.0000 O   0  0  0  0  0  0  0  0  0  0  0  0
  -35.8120  -85.9190    9.8080 S   0  0  0  0  0  0  0  0  0  0  0  0
  1  5  1  0  0  0  0
  2  5  1  0  0  0  0
  3  5  1  0  0  0  0
  4  5  2  0  0  0  0
M  END
$$$$
