complex
  PyMOL3.0          3D                             0

  5  4  0  0  0  0  0  0  0  0999 V2000
  -82.3650  -43.3380  -30.0910 O   0  0  0  0  0  0  0  0  0  0  0  0
  -84.1740  -44.7700  -30.6020 O   0  0  0  0  0  0  0  0  0  0  0  0
  -84.5710  -42.7310  -29.4310 O   0  5  0  0  0  0  0  0  0  0  0  0
  -83.4450  -44.5140  -28.3680 O   0  0  0  0  0  0  0  0  0  0  0  0
  -83.6410  -43.8360  -29.6270 S   0  0  0  0  0  0  0  0  0  0  0  0
  1  5  1  0  0  0  0
  2  5  1  0  0  0  0
  3  5  1  0  0  0  0
  4  5  2  0  0  0  0
M  END
$$$$
