complex
  PyMOL3.0          3D                             0

  5  4  0  0  0  0  0  0  0  0999 V2000
   51.3520   40.3580   33.8190 O   0  0  0  0  0  0  0  0  0  0  0  0
   49.2400   39.4330   34.4530 O   0  0  0  0  0  0  0  0  0  0  0  0
   51.0820   39.3890   35.9820 O   0  5  0  0  0  0  0  0  0  0  0  0
   50.0000   41.4530   35.4580 O   0  0  0  0  0  0  0  0  0  0  0  0
   50.4190   40.1560   34.9280 S   0  0  0  0  0  0  0  0  0  0  0  0
  1  5  1  0  0  0  0
  2  5  1  0  0  0  0
  3  5  1  0  0  0  0
  4  5  2  0  0  0  0
M  END
$$$$
