complex
  PyMOL3.0          3D                             0

 44 48  0  0  0  0  0  0  0  0999 V2000
  211.3800  352.8650  245.1080 P   0  0  0  0  0  0  0  0  0  0  0  0
  214.1900  353.6000  245.6900 P   0  0  0  0  0  0  0  0  0  0  0  0
  210.5100  346.8750  245.2180 C   0  0  0  0  0  0  0  0  0  0  0  0
  216.8460  353.2530  250.2780 C   0  0  0  0  0  0  0  0  0  0  0  0
  211.3240  342.1290  247.0710 N   0  0  0  0  0  0  0  0  0  0  0  0
  217.7300  354.4530  250.2650 N   0  0  0  0  0  0  0  0  0  0  0  0
  210.2060  352.9280  246.0260 O   0  5  0  0  0  0  0  0  0  0  0  0
  214.1040  355.0770  245.4930 O   0  5  0  0  0  0  0  0  0  0  0  0
  211.7760  342.7530  245.9770 C   0  0  0  0  0  0  0  0  0  0  0  0
  209.3120  347.7120  244.7980 C   0  0  0  0  0  0  0  0  0  0  0  0
  215.3740  353.6190  250.3940 C   0  0  0  0  0  0  0  0  0  0  0  0
  218.8760  354.4710  251.0200 C   0  0  0  0  0  0  0  0  0  0  0  0
  211.4300  353.8200  243.9610 O   0  0  0  0  0  0  0  0  0  0  0  0
  208.3400  347.0010  244.0620 O   0  0  0  0  0  0  0  0  0  0  0  0
  215.0080  354.0210  251.7050 O   0  0  0  0  0  0  0  0  0  0  0  0
  214.8370  352.7840  244.6210 O   0  0  0  0  0  0  0  0  0  0  0  0
  210.0310  348.7990  243.9930 C   0  0  0  0  0  0  0  0  0  0  0  0
  214.7030  352.3250  249.9250 C   0  0  0  0  0  0  0  0  0  0  0  0
  219.6940  355.5930  251.0270 C   0  0  0  0  0  0  0  0  0  0  0  0
  211.5320  343.9890  245.5530 N   0  0  0  0  0  0  0  0  0  0  0  0
  212.7200  353.0210  245.9760 O   0  0  0  0  0  0  0  0  0  0  0  0
  210.2900  348.3200  242.6800 O   0  0  0  0  0  0  0  0  0  0  0  0
  214.6460  351.3760  250.9810 O   0  0  0  0  0  0  0  0  0  0  0  0
  210.7060  344.6340  246.3930 C   0  0  0  0  0  0  0  0  0  0  0  0
  211.3600  348.9640  244.7520 C   0  0  0  0  0  0  0  0  0  0  0  0
  215.6830  351.8380  248.8460 C   0  0  0  0  0  0  0  0  0  0  0  0
  219.3500  356.6860  250.2410 C   0  0  0  0  0  0  0  0  0  0  0  0
  211.4170  347.8460  245.6770 O   0  0  0  0  0  0  0  0  0  0  0  0
  216.8520  352.6750  248.9850 O   0  0  0  0  0  0  0  0  0  0  0  0
  210.1610  344.1260  247.5550 C   0  0  0  0  0  0  0  0  0  0  0  0
  211.5460  350.2610  245.5020 C   0  0  0  0  0  0  0  0  0  0  0  0
  215.1920  351.9110  247.4230 C   0  0  0  0  0  0  0  0  0  0  0  0
  218.2090  356.6430  249.4720 C   0  0  0  0  0  0  0  0  0  0  0  0
  211.5180  351.3640  244.5580 O   0  0  0  0  0  0  0  0  0  0  0  0
  214.9050  353.2910  247.0900 O   0  0  0  0  0  0  0  0  0  0  0  0
  210.4960  342.8030  247.9030 C   0  0  0  0  0  0  0  0  0  0  0  0
  217.4120  355.5220  249.5020 C   0  0  0  0  0  0  0  0  0  0  0  0
  210.0420  342.1870  248.9900 N   0  0  0  0  0  0  0  0  0  0  0  0
  220.9360  355.5740  251.8820 C   0  0  0  0  0  0  0  0  0  0  0  0
  209.3560  345.0760  248.1660 N   0  0  0  0  0  0  0  0  0  0  0  0
  221.6540  356.6850  251.9460 N   0  0  0  0  0  0  0  0  0  0  0  0
  221.2390  354.5480  252.4840 O   0  0  0  0  0  0  0  0  0  0  0  0
  209.4240  346.1170  247.3750 C   0  0  0  0  0  0  0  0  0  0  0  0
  210.2340  345.9200  246.2860 N   0  0  0  0  0  0  0  0  0  0  0  0
  1  7  1  0  0  0  0
  1 13  2  0  0  0  0
  1 21  1  0  0  0  0
  1 34  1  0  0  0  0
  2  8  1  0  0  0  0
  2 16  2  0  0  0  0
  2 21  1  0  0  0  0
  2 35  1  0  0  0  0
  3 10  1  0  0  0  0
  3 28  1  0  0  0  0
  3 44  1  0  0  0  0
  4  6  1  0  0  0  0
  4 11  1  0  0  0  0
  4 29  1  0  0  0  0
  5  9  4  0  0  0  0
  5 36  4  0  0  0  0
  6 12  4  0  0  0  0
  6 37  4  0  0  0  0
  9 20  4  0  0  0  0
 10 14  1  0  0  0  0
 10 17  1  0  0  0  0
 11 15  1  0  0  0  0
 11 18  1  0  0  0  0
 12 19  4  0  0  0  0
 17 22  1  0  0  0  0
 17 25  1  0  0  0  0
 18 23  1  0  0  0  0
 18 26  1  0  0  0  0
 19 27  4  0  0  0  0
 19 39  1  0  0  0  0
 20 24  4  0  0  0  0
 24 30  4  0  0  0  0
 24 44  4  0  0  0  0
 25 28  1  0  0  0  0
 25 31  1  0  0  0  0
 26 29  1  0  0  0  0
 26 32  1  0  0  0  0
 27 33  4  0  0  0  0
 30 36  4  0  0  0  0
 30 40  4  0  0  0  0
 31 34  1  0  0  0  0
 32 35  1  0  0  0  0
 33 37  4  0  0  0  0
 36 38  1  0  0  0  0
 39 41  1  0  0  0  0
 39 42  2  0  0  0  0
 40 43  4  0  0  0  0
 43 44  4  0  0  0  0
M  END
$$$$
