complex
  PyMOL3.0          3D                             0

 37 40  0  0  0  0  0  0  0  0999 V2000
    1.8270  -22.2300   65.0910 C   0  0  0  0  0  0  0  0  0  0  0  0
    0.4170  -22.1240   65.3880 N   0  0  0  0  0  0  0  0  0  0  0  0
   -0.4870  -23.1410   65.2790 C   0  0  0  0  0  0  0  0  0  0  0  0
   -1.7140  -22.6300   65.6520 C   0  0  0  0  0  0  0  0  0  0  0  0
   -2.8140  -23.4670   65.6330 C   0  0  0  0  0  0  0  0  0  0  0  0
   -2.6650  -24.7790   65.2460 C   0  0  0  0  0  0  0  0  0  0  0  0
   -1.4300  -25.2640   64.8790 C   0  0  0  0  0  0  0  0  0  0  0  0
   -0.3200  -24.4510   64.8890 C   0  0  0  0  0  0  0  0  0  0  0  0
   -0.1890  -20.9790   65.8110 C   0  0  0  0  0  0  0  0  0  0  0  0
   -1.5250  -21.2640   65.9880 C   0  0  0  0  0  0  0  0  0  0  0  0
   -2.4880  -20.2910   66.4150 C   0  0  0  0  0  0  0  0  0  0  0  0
   -3.7470  -20.5870   66.0840 N   0  0  0  0  0  0  0  0  0  0  0  0
   -4.6970  -19.7190   66.4390 C   0  0  0  0  0  0  0  0  0  0  0  0
   -6.0400  -19.9670   66.1250 N   0  0  0  0  0  0  0  0  0  0  0  0
   -6.6380  -21.0510   65.4460 C   0  0  0  0  0  0  0  0  0  0  0  0
   -7.8850  -21.4250   65.8860 C   0  0  0  0  0  0  0  0  0  0  0  0
   -8.4320  -20.7400   66.9540 O   0  0  0  0  0  0  0  0  0  0  0  0
   -9.6370  -20.1710   66.4680 C   0  0  0  0  0  0  0  0  0  0  0  0
   -8.5810  -22.4590   65.3030 C   0  0  0  0  0  0  0  0  0  0  0  0
   -8.0670  -23.1600   64.2340 C   0  0  0  0  0  0  0  0  0  0  0  0
   -8.8690  -24.2080   63.6990 N   0  0  0  0  0  0  0  0  0  0  0  0
  -10.1960  -23.6860   63.4240 C   0  0  0  0  0  0  0  0  0  0  0  0
   -8.3030  -24.8860   62.5460 C   0  0  0  0  0  0  0  0  0  0  0  0
   -8.3900  -26.3860   62.7260 C   0  0  0  0  0  0  0  0  0  0  0  0
   -7.3170  -27.0240   61.9790 N   0  0  0  0  0  0  0  0  0  0  0  0
   -7.9270  -27.9610   61.0510 C   0  0  0  0  0  0  0  0  0  0  0  0
   -6.5540  -27.8210   62.9240 C   0  0  0  0  0  0  0  0  0  0  0  0
   -6.8110  -22.7870   63.7800 C   0  0  0  0  0  0  0  0  0  0  0  0
   -6.2840  -23.5030   62.6900 N   0  0  0  0  0  0  0  0  0  0  0  0
   -5.0470  -23.3410   62.1190 C   0  0  0  0  0  0  0  0  0  0  0  0
   -4.7920  -24.4180   61.1460 C   0  0  0  0  0  0  0  0  0  0  0  0
   -4.7830  -23.9350   59.7170 C   0  0  0  0  0  0  0  0  0  0  0  0
   -4.2280  -22.4620   62.3400 O   0  0  0  0  0  0  0  0  0  0  0  0
   -6.1090  -21.7480   64.3760 C   0  0  0  0  0  0  0  0  0  0  0  0
   -4.4440  -18.5840   67.1020 N   0  0  0  0  0  0  0  0  0  0  0  0
   -3.1730  -18.3230   67.4180 C   0  0  0  0  0  0  0  0  0  0  0  0
   -2.1240  -19.1520   67.0970 C   0  0  0  0  0  0  0  0  0  0  0  0
  1  2  1  0  0  0  0
  2  3  4  0  0  0  0
  2  9  4  0  0  0  0
  3  4  4  0  0  0  0
  3  8  4  0  0  0  0
  4  5  4  0  0  0  0
  4 10  4  0  0  0  0
  5  6  4  0  0  0  0
  6  7  4  0  0  0  0
  7  8  4  0  0  0  0
  9 10  4  0  0  0  0
 10 11  1  0  0  0  0
 11 12  4  0  0  0  0
 11 37  4  0  0  0  0
 12 13  4  0  0  0  0
 13 14  1  0  0  0  0
 13 35  4  0  0  0  0
 14 15  1  0  0  0  0
 15 16  4  0  0  0  0
 15 34  4  0  0  0  0
 16 17  1  0  0  0  0
 16 19  4  0  0  0  0
 17 18  1  0  0  0  0
 19 20  4  0  0  0  0
 20 21  1  0  0  0  0
 20 28  4  0  0  0  0
 21 22  1  0  0  0  0
 21 23  1  0  0  0  0
 23 24  1  0  0  0  0
 24 25  1  0  0  0  0
 25 26  1  0  0  0  0
 25 27  1  0  0  0  0
 28 29  1  0  0  0  0
 28 34  4  0  0  0  0
 29 30  1  0  0  0  0
 30 31  1  0  0  0  0
 30 33  2  0  0  0  0
 31 32  1  0  0  0  0
 35 36  4  0  0  0  0
 36 37  4  0  0  0  0
M  END
$$$$
