complex
  PyMOL3.0          3D                             0

 29 32  0  0  0  0  0  0  0  0999 V2000
  136.4870  164.9360  115.8570 C   0  0  0  0  0  0  0  0  0  0  0  0
  135.7470  164.3590  119.3270 O   0  0  0  0  0  0  0  0  0  0  0  0
  136.6310  165.0420  117.2000 C   0  0  0  0  0  0  0  0  0  0  0  0
  136.3330  164.8310  112.3360 O   0  0  0  0  0  0  0  0  0  0  0  0
  135.6380  164.2950  118.1020 C   0  0  0  0  0  0  0  0  0  0  0  0
  132.0970  167.6680  111.2210 O   0  0  0  0  0  0  0  0  0  0  0  0
  134.5030  163.4810  117.4670 C   0  0  0  0  0  0  0  0  0  0  0  0
  131.6980  166.4760  108.0940 O   0  0  0  0  0  0  0  0  0  0  0  0
  134.4080  163.4130  116.1120 C   0  0  0  0  0  0  0  0  0  0  0  0
  134.6110  167.2830  107.8310 O   0  0  0  0  0  0  0  0  0  0  0  0
  133.2440  162.6130  115.5550 C   0  0  0  0  0  0  0  0  0  0  0  0
  132.4630  163.4280  114.4980 C   0  0  0  0  0  0  0  0  0  0  0  0
  133.3120  164.2470  113.4810 C   0  0  0  0  0  0  0  0  0  0  0  0
  134.5970  164.9790  114.0500 C   0  0  0  0  0  0  0  0  0  0  0  0
  135.4020  164.1110  115.1170 C   0  0  0  0  0  0  0  0  0  0  0  0
  135.4120  165.7310  112.9420 C   0  0  0  0  0  0  0  0  0  0  0  0
  134.6220  166.4080  111.7750 C   0  0  0  0  0  0  0  0  0  0  0  0
  133.4010  165.6040  111.2030 C   0  0  0  0  0  0  0  0  0  0  0  0
  132.5260  165.0690  112.4050 C   0  0  0  0  0  0  0  0  0  0  0  0
  131.2270  164.5780  111.7560 C   0  0  0  0  0  0  0  0  0  0  0  0
  130.9430  165.6400  110.6920 C   0  0  0  0  0  0  0  0  0  0  0  0
  132.2630  166.4430  110.4810 C   0  0  0  0  0  0  0  0  0  0  0  0
  134.0080  164.5100  110.2840 C   0  0  0  0  0  0  0  0  0  0  0  0
  136.2290  162.9660  114.5030 C   0  0  0  0  0  0  0  0  0  0  0  0
  132.4520  166.8910  108.9910 C   0  0  0  0  0  0  0  0  0  0  0  0
  133.5320  167.8830  108.5490 C   0  0  0  0  0  0  0  0  0  0  0  0
  129.6530  166.3960  111.0390 C   0  0  0  0  0  0  0  0  0  0  0  0
  134.0970  166.0640  114.7540 F   0  0  0  0  0  0  0  0  0  0  0  0
  132.1920  165.9290  113.0420 H   0  0  0  0  0  0  0  0  0  0  0  0
  1  3  1  0  0  0  0
  1 15  1  0  0  0  0
  2  5  2  0  0  0  0
  3  5  1  0  0  0  0
  4 16  1  0  0  0  0
  5  7  1  0  0  0  0
  6 22  1  0  0  0  0
  7  9  1  0  0  0  0
  8 25  2  0  0  0  0
  9 11  1  0  0  0  0
  9 15  1  0  0  0  0
 10 26  1  0  0  0  0
 11 12  1  0  0  0  0
 12 13  1  0  0  0  0
 13 14  1  0  0  0  0
 13 19  1  0  0  0  0
 14 15  1  0  0  0  0
 14 16  1  0  0  0  0
 14 28  1  0  0  0  0
 15 24  1  0  0  0  0
 16 17  1  0  0  0  0
 17 18  1  0  0  0  0
 18 19  1  0  0  0  0
 18 22  1  0  0  0  0
 18 23  1  0  0  0  0
 19 20  1  0  0  0  0
 19 29  1  0  0  0  0
 20 21  1  0  0  0  0
 21 22  1  0  0  0  0
 21 27  1  0  0  0  0
 22 25  1  0  0  0  0
 25 26  1  0  0  0  0
M  END
$$$$
