complex
  PyMOL3.0          3D                             0

 21 24  0  0  0  0  0  0  0  0999 V2000
   23.1720   63.6110   65.9550 C   0  0  0  0  0  0  0  0  0  0  0  0
   18.9900   55.4850   62.4500 C   0  0  0  0  0  0  0  0  0  0  0  0
   18.8800   56.3240   63.6780 C   0  0  0  0  0  0  0  0  0  0  0  0
   19.6450   57.6160   63.7800 C   0  0  0  0  0  0  0  0  0  0  0  0
   19.8720   55.9340   61.3120 C   0  0  0  0  0  0  0  0  0  0  0  0
   19.9760   55.0610   60.0460 C   0  0  0  0  0  0  0  0  0  0  0  0
   19.4400   53.6680   59.6680 C   0  0  0  0  0  0  0  0  0  0  0  0
   20.9470   53.8900   59.8120 C   0  0  0  0  0  0  0  0  0  0  0  0
   20.6640   57.2930   61.4410 C   0  0  0  0  0  0  0  0  0  0  0  0
   20.5590   58.0810   62.5960 C   0  0  0  0  0  0  0  0  0  0  0  0
   21.5330   57.9450   60.5670 N   0  0  0  0  0  0  0  0  0  0  0  0
   21.9650   59.1250   61.1740 C   0  0  0  0  0  0  0  0  0  0  0  0
   21.3560   59.2030   62.4300 C   0  0  0  0  0  0  0  0  0  0  0  0
   21.6410   60.4090   63.3450 C   0  0  0  0  0  0  0  0  0  0  0  0
   22.5520   61.4760   62.8920 C   0  0  0  0  0  0  0  0  0  0  0  0
   23.1920   61.3780   61.5550 C   0  0  0  0  0  0  0  0  0  0  0  0
   22.9180   60.2280   60.6830 N   0  0  0  0  0  0  0  0  0  0  0  0
   22.8190   62.6670   63.8330 C   0  0  0  0  0  0  0  0  0  0  0  0
   22.8590   62.4590   65.2210 O   0  0  0  0  0  0  0  0  0  0  0  0
   22.9860   63.7530   63.3760 O   0  0  0  0  0  0  0  0  0  0  0  0
   24.1410   62.4800   61.0800 C   0  0  0  0  0  0  0  0  0  0  0  0
  1 19  1  0  0  0  0
  2  3  4  0  0  0  0
  2  5  4  0  0  0  0
  3  4  4  0  0  0  0
  4 10  4  0  0  0  0
  5  6  1  0  0  0  0
  5  9  4  0  0  0  0
  6  7  1  0  0  0  0
  6  8  1  0  0  0  0
  7  8  1  0  0  0  0
  9 10  4  0  0  0  0
  9 11  4  0  0  0  0
 10 13  4  0  0  0  0
 11 12  4  0  0  0  0
 12 13  4  0  0  0  0
 12 17  4  0  0  0  0
 13 14  4  0  0  0  0
 14 15  4  0  0  0  0
 15 16  4  0  0  0  0
 15 18  1  0  0  0  0
 16 17  4  0  0  0  0
 16 21  1  0  0  0  0
 18 19  1  0  0  0  0
 18 20  2  0  0  0  0
M  END
$$$$
