complex
  PyMOL3.0          3D                             0

 19 20  0  0  0  0  0  0  0  0999 V2000
  -15.7630   19.2570   26.2960 C   0  0  0  0  0  0  0  0  0  0  0  0
  -14.9290   20.4580   26.2120 N   0  0  0  0  0  0  0  0  0  0  0  0
  -16.7570   16.9650   28.0820 O   0  0  0  0  0  0  0  0  0  0  0  0
  -14.9580   17.9850   26.2540 C   0  0  0  0  0  0  0  0  0  0  0  0
  -15.8180   16.8220   26.0770 N   0  0  0  0  0  0  0  0  0  0  0  0
  -20.0610   12.1830   24.2080 O   0  0  0  0  0  0  0  0  0  0  0  0
  -16.7570   16.4950   26.9380 C   0  0  0  0  0  0  0  0  0  0  0  0
  -17.7370   15.6490   26.5270 N   0  0  0  0  0  0  0  0  0  0  0  0
  -21.6600   13.2190   27.1810 O   0  0  0  0  0  0  0  0  0  0  0  0
  -18.7150   15.0710   27.4510 C   0  0  0  0  0  0  0  0  0  0  0  0
  -19.0540   13.2350   25.8820 N   0  0  0  0  0  0  0  0  0  0  0  0
  -18.8010   13.5640   27.2890 C   0  0  0  0  0  0  0  0  0  0  0  0
  -17.9880   13.7440   25.0210 C   0  0  0  0  0  0  0  0  0  0  0  0
  -17.9590   15.2520   25.1380 C   0  0  0  0  0  0  0  0  0  0  0  0
  -20.1360   12.6350   25.3500 C   0  0  0  0  0  0  0  0  0  0  0  0
  -21.4270   12.5330   26.0140 C   0  0  0  0  0  0  0  0  0  0  0  0
  -22.5290   11.8230   25.6650 C   0  0  0  0  0  0  0  0  0  0  0  0
  -23.5230   12.0930   26.6350 C   0  0  0  0  0  0  0  0  0  0  0  0
  -22.9460   12.9470   27.5460 C   0  0  0  0  0  0  0  0  0  0  0  0
  1  2  1  0  0  0  0
  1  4  1  0  0  0  0
  3  7  2  0  0  0  0
  4  5  1  0  0  0  0
  5  7  1  0  0  0  0
  6 15  2  0  0  0  0
  7  8  1  0  0  0  0
  8 10  1  0  0  0  0
  8 14  1  0  0  0  0
  9 16  4  0  0  0  0
  9 19  4  0  0  0  0
 10 12  1  0  0  0  0
 11 12  1  0  0  0  0
 11 13  1  0  0  0  0
 11 15  1  0  0  0  0
 13 14  1  0  0  0  0
 15 16  1  0  0  0  0
 16 17  4  0  0  0  0
 17 18  4  0  0  0  0
 18 19  4  0  0  0  0
M  END
$$$$
