complex
  PyMOL3.0          3D                             0

 14 14  0  0  0  0  0  0  0  0999 V2000
  194.0890  273.7340  242.5590 C   0  0  0  0  0  0  0  0  0  0  0  0
  192.9550  272.9030  243.1720 C   0  0  0  0  0  0  0  0  0  0  0  0
  192.7700  271.6520  242.4550 N   0  0  0  0  0  0  0  0  0  0  0  0
  191.6530  273.7090  243.1880 C   0  0  0  0  0  0  0  0  0  0  0  0
  190.6510  272.9270  243.8300 O   0  0  0  0  0  0  0  0  0  0  0  0
  191.8470  275.0560  243.8830 C   0  0  0  0  0  0  0  0  0  0  0  0
  190.6840  275.8700  243.7650 O   0  0  0  0  0  0  0  0  0  0  0  0
  193.0070  275.8070  243.2290 C   0  0  0  0  0  0  0  0  0  0  0  0
  194.1910  274.9950  243.2470 O   0  0  0  0  0  0  0  0  0  0  0  0
  193.3630  277.0920  243.9370 C   0  0  0  0  0  0  0  0  0  0  0  0
  194.7490  277.3810  243.8180 O   0  0  0  0  0  0  0  0  0  0  0  0
  193.4080  270.5240  242.7790 C   0  0  0  0  0  0  0  0  0  0  0  0
  194.2090  270.4730  243.7050 O   0  0  0  0  0  0  0  0  0  0  0  0
  193.0890  269.3260  241.9380 C   0  0  0  0  0  0  0  0  0  0  0  0
  1  2  1  0  0  0  0
  1  9  1  0  0  0  0
  2  3  1  0  0  0  0
  2  4  1  0  0  0  0
  3 12  1  0  0  0  0
  4  5  1  0  0  0  0
  4  6  1  0  0  0  0
  6  7  1  0  0  0  0
  6  8  1  0  0  0  0
  8  9  1  0  0  0  0
  8 10  1  0  0  0  0
 10 11  1  0  0  0  0
 12 13  2  0  0  0  0
 12 14  1  0  0  0  0
M  END
$$$$
