complex
  PyMOL3.0          3D                             0

  7  6  0  0  0  0  0  0  0  0999 V2000
  -22.9740   -5.5530    3.5390 C   0  0  0  0  0  0  0  0  0  0  0  0
  -23.3680   -4.3860    3.5960 O   0  0  0  0  0  0  0  0  0  0  0  0
  -22.5030   -6.1330    2.2590 C   0  0  0  0  0  0  0  0  0  0  0  0
  -23.1640   -6.3290    4.4600 O   0  0  0  0  0  0  0  0  0  0  0  0
  -21.7510   -6.7220    2.4300 H   0  0  0  0  0  0  0  0  0  0  0  0
  -23.2050   -6.6740    1.8660 H   0  0  0  0  0  0  0  0  0  0  0  0
  -22.2320   -5.4450    1.6340 H   0  0  0  0  0  0  0  0  0  0  0  0
  1  2  4  0  0  0  0
  1  3  1  0  0  0  0
  1  4  4  0  0  0  0
  3  5  1  0  0  0  0
  3  6  1  0  0  0  0
  3  7  1  0  0  0  0
M  END
$$$$
