complex
  PyMOL3.0          3D                             0

 21 20  0  0  0  0  0  0  0  0999 V2000
  -14.4430   11.7480    1.5240 C   0  0  0  0  0  0  0  0  0  0  0  0
   -9.4290   11.0340    0.7760 N   0  0  0  0  0  0  0  0  0  0  0  0
  -13.6600   13.2340    4.3980 O   0  0  0  0  0  0  0  0  0  0  0  0
  -13.9300   13.1970    1.5400 C   0  0  0  0  0  0  0  0  0  0  0  0
  -14.7090   13.9830    2.4840 N   0  0  0  0  0  0  0  0  0  0  0  0
  -14.0120   10.9170    2.2560 O   0  0  0  0  0  0  0  0  0  0  0  0
  -14.4980   15.7940    5.4240 C   0  0  0  0  0  0  0  0  0  0  0  0
  -15.9470   19.1730    5.1670 O   0  0  0  0  0  0  0  0  0  0  0  0
  -12.4230   13.3830    1.7120 C   0  0  0  0  0  0  0  0  0  0  0  0
  -11.8050    8.5590    0.1040 O   0  0  0  0  0  0  0  0  0  0  0  0
  -15.4050   14.7180    4.8310 C   0  0  0  0  0  0  0  0  0  0  0  0
  -10.6280    8.7490    2.0970 O   0  0  0  0  0  0  0  0  0  0  0  0
  -14.5350   13.8880    3.9250 C   0  0  0  0  0  0  0  0  0  0  0  0
  -15.3650   16.9370    5.9270 C   0  0  0  0  0  0  0  0  0  0  0  0
  -15.5310   18.0160    4.8330 C   0  0  0  0  0  0  0  0  0  0  0  0
  -11.8120   13.0350    0.3480 C   0  0  0  0  0  0  0  0  0  0  0  0
  -15.3030   17.7570    3.6100 O   0  0  0  0  0  0  0  0  0  0  0  0
  -11.7100   11.5440    0.0180 C   0  0  0  0  0  0  0  0  0  0  0  0
  -10.8430   10.7820    1.0380 C   0  0  0  0  0  0  0  0  0  0  0  0
  -11.1190    9.2740    1.0370 C   0  0  0  0  0  0  0  0  0  0  0  0
  -14.7600   17.4900    7.1260 N   0  0  0  0  0  0  0  0  0  0  0  0
  1  4  1  0  0  0  0
  1  6  2  0  0  0  0
  2 19  1  0  0  0  0
  3 13  2  0  0  0  0
  4  5  1  0  0  0  0
  4  9  1  0  0  0  0
  5 13  1  0  0  0  0
  7 11  1  0  0  0  0
  7 14  1  0  0  0  0
  8 15  4  0  0  0  0
  9 16  1  0  0  0  0
 10 20  4  0  0  0  0
 11 13  1  0  0  0  0
 12 20  4  0  0  0  0
 14 15  1  0  0  0  0
 14 21  1  0  0  0  0
 15 17  4  0  0  0  0
 16 18  1  0  0  0  0
 18 19  1  0  0  0  0
 19 20  1  0  0  0  0
M  END
$$$$
