complex
  PyMOL3.0          3D                             0

 11 11  0  0  0  0  0  0  0  0999 V2000
   70.1210   -9.8860   39.7130 C   0  0  0  0  0  0  0  0  0  0  0  0
   69.4130   -9.6870   41.0480 C   0  0  0  0  0  0  0  0  0  0  0  0
   68.5440  -10.7970   41.2960 O   0  0  0  0  0  0  0  0  0  0  0  0
   68.6010   -8.3980   41.0490 C   0  0  0  0  0  0  0  0  0  0  0  0
   68.1340   -8.1280   42.3760 O   0  0  0  0  0  0  0  0  0  0  0  0
   69.4400   -7.2250   40.5570 C   0  0  0  0  0  0  0  0  0  0  0  0
   68.5970   -6.0840   40.3610 O   0  0  0  0  0  0  0  0  0  0  0  0
   70.1430   -7.5670   39.2490 C   0  0  0  0  0  0  0  0  0  0  0  0
   70.9280   -8.7450   39.4250 O   0  0  0  0  0  0  0  0  0  0  0  0
   71.0390   -6.4220   38.7950 C   0  0  0  0  0  0  0  0  0  0  0  0
   72.2870   -6.4830   39.4950 O   0  0  0  0  0  0  0  0  0  0  0  0
  1  2  1  0  0  0  0
  1  9  1  0  0  0  0
  2  3  1  0  0  0  0
  2  4  1  0  0  0  0
  4  5  1  0  0  0  0
  4  6  1  0  0  0  0
  6  7  1  0  0  0  0
  6  8  1  0  0  0  0
  8  9  1  0  0  0  0
  8 10  1  0  0  0  0
 10 11  1  0  0  0  0
M  END
$$$$
