complex
  PyMOL3.0          3D                             0

 30 32  0  0  0  0  0  0  0  0999 V2000
   65.2320  122.8700  112.8760 P   0  0  0  0  0  0  0  0  0  0  0  0
   66.0100  125.6110  113.6350 P   0  0  0  0  0  0  0  0  0  0  0  0
   63.5590  126.5360  115.0620 P   0  0  0  0  0  0  0  0  0  0  0  0
   67.1990  121.3270  112.0290 C   0  0  0  0  0  0  0  0  0  0  0  0
   66.0300  122.1210  111.7370 O   0  0  0  0  0  0  0  0  0  0  0  0
   68.2490  121.5300  110.9710 C   0  0  0  0  0  0  0  0  0  0  0  0
   67.8340  120.8890  109.7490 O   0  0  0  0  0  0  0  0  0  0  0  0
   68.5400  122.9830  110.6030 C   0  0  0  0  0  0  0  0  0  0  0  0
   69.6650  123.4690  111.3370 O   0  0  0  0  0  0  0  0  0  0  0  0
   68.8600  122.8900  109.1190 C   0  0  0  0  0  0  0  0  0  0  0  0
   67.9080  121.7990  108.6700 C   0  0  0  0  0  0  0  0  0  0  0  0
   63.2990  120.6640  106.6740 N   0  0  0  0  0  0  0  0  0  0  0  0
   65.6600  122.3870  114.2010 O   0  5  0  0  0  0  0  0  0  0  0  0
   67.2970  125.3630  114.2970 O   0  5  0  0  0  0  0  0  0  0  0  0
   62.3080  125.8940  114.5930 O   0  0  0  0  0  0  0  0  0  0  0  0
   64.4280  119.9580  106.7550 C   0  0  0  0  0  0  0  0  0  0  0  0
   63.7530  122.7250  112.6100 O   0  0  0  0  0  0  0  0  0  0  0  0
   65.9320  126.8840  112.7990 O   0  0  0  0  0  0  0  0  0  0  0  0
   63.6420  126.6840  116.5630 O   0  5  0  0  0  0  0  0  0  0  0  0
   65.5990  120.3120  107.2790 N   0  0  0  0  0  0  0  0  0  0  0  0
   65.5850  124.3970  112.6960 O   0  0  0  0  0  0  0  0  0  0  0  0
   64.8170  125.6490  114.6830 O   0  0  0  0  0  0  0  0  0  0  0  0
   63.8280  127.8830  114.4040 O   0  0  0  0  0  0  0  0  0  0  0  0
   65.5460  121.5470  107.7780 C   0  0  0  0  0  0  0  0  0  0  0  0
   64.4550  122.3920  107.7700 C   0  0  0  0  0  0  0  0  0  0  0  0
   63.2800  121.9090  107.1720 C   0  0  0  0  0  0  0  0  0  0  0  0
   62.1470  122.6050  107.0880 N   0  0  0  0  0  0  0  0  0  0  0  0
   64.7720  123.6030  108.3500 N   0  0  0  0  0  0  0  0  0  0  0  0
   66.0230  123.4580  108.7040 C   0  0  0  0  0  0  0  0  0  0  0  0
   66.5590  122.2480  108.3750 N   0  0  0  0  0  0  0  0  0  0  0  0
  1  5  1  0  0  0  0
  1 13  1  0  0  0  0
  1 17  2  0  0  0  0
  1 21  1  0  0  0  0
  2 14  1  0  0  0  0
  2 18  2  0  0  0  0
  2 21  1  0  0  0  0
  2 22  1  0  0  0  0
  3 15  1  0  0  0  0
  3 19  1  0  0  0  0
  3 22  1  0  0  0  0
  3 23  2  0  0  0  0
  4  5  1  0  0  0  0
  4  6  1  0  0  0  0
  6  7  1  0  0  0  0
  6  8  1  0  0  0  0
  7 11  1  0  0  0  0
  8  9  1  0  0  0  0
  8 10  1  0  0  0  0
 10 11  1  0  0  0  0
 11 30  1  0  0  0  0
 12 16  4  0  0  0  0
 12 26  4  0  0  0  0
 16 20  4  0  0  0  0
 20 24  4  0  0  0  0
 24 25  4  0  0  0  0
 24 30  4  0  0  0  0
 25 26  4  0  0  0  0
 25 28  4  0  0  0  0
 26 27  1  0  0  0  0
 28 29  4  0  0  0  0
 29 30  4  0  0  0  0
M  END
$$$$
