complex
  PyMOL3.0          3D                             0

 14 14  0  0  0  0  0  0  0  0999 V2000
  -81.8260   15.8510   51.4090 C   0  0  0  0  0  0  0  0  0  0  0  0
  -82.9050   16.8590   51.0180 C   0  0  0  0  0  0  0  0  0  0  0  0
  -82.7720   17.2890   49.6330 N   0  0  0  0  0  0  0  0  0  0  0  0
  -82.8810   18.0510   51.9710 C   0  0  0  0  0  0  0  0  0  0  0  0
  -83.9460   18.9410   51.6560 O   0  0  0  0  0  0  0  0  0  0  0  0
  -83.0050   17.5730   53.4130 C   0  0  0  0  0  0  0  0  0  0  0  0
  -82.8290   18.6700   54.3030 O   0  0  0  0  0  0  0  0  0  0  0  0
  -81.9540   16.5040   53.7190 C   0  0  0  0  0  0  0  0  0  0  0  0
  -82.0350   15.4290   52.7680 O   0  0  0  0  0  0  0  0  0  0  0  0
  -82.1180   15.8910   55.0910 C   0  0  0  0  0  0  0  0  0  0  0  0
  -83.2770   15.0710   55.1650 O   0  0  0  0  0  0  0  0  0  0  0  0
  -81.7040   17.9250   49.1330 C   0  0  0  0  0  0  0  0  0  0  0  0
  -80.7280   18.2100   49.8210 O   0  0  0  0  0  0  0  0  0  0  0  0
  -81.7740   18.2730   47.6770 C   0  0  0  0  0  0  0  0  0  0  0  0
  1  2  1  0  0  0  0
  1  9  1  0  0  0  0
  2  3  1  0  0  0  0
  2  4  1  0  0  0  0
  3 12  1  0  0  0  0
  4  5  1  0  0  0  0
  4  6  1  0  0  0  0
  6  7  1  0  0  0  0
  6  8  1  0  0  0  0
  8  9  1  0  0  0  0
  8 10  1  0  0  0  0
 10 11  1  0  0  0  0
 12 13  2  0  0  0  0
 12 14  1  0  0  0  0
M  END
$$$$
