complex
  PyMOL3.0          3D                             0

 48 50  0  0  0  0  0  0  0  0999 V2000
  -37.5290   54.6590    3.5190 C   0  0  0  0  0  0  0  0  0  0  0  0
  -38.4090   53.5890    3.2140 O   0  0  0  0  0  0  0  0  0  0  0  0
  -37.9330   55.8670    2.6620 C   0  0  0  0  0  0  0  0  0  0  0  0
  -37.4450   55.6710    1.2240 C   0  0  0  0  0  0  0  0  0  0  0  0
  -37.2980   57.1410    3.2280 C   0  0  0  0  0  0  0  0  0  0  0  0
  -40.9580   59.6030   -0.3650 P   0  0  0  0  0  0  0  0  0  0  0  0
  -41.3220   57.7180    1.8820 P   0  0  0  0  0  0  0  0  0  0  0  0
  -45.3220   64.2370   -0.5120 P   0  0  0  0  0  0  0  0  0  0  0  0
  -32.8760   46.0270    4.3200 S   0  0  0  0  0  0  0  0  0  0  0  0
  -32.0630   47.5220    3.7000 C   0  0  0  0  0  0  0  0  0  0  0  0
  -32.8930   48.7790    3.8130 C   0  0  0  0  0  0  0  0  0  0  0  0
  -32.1150   49.9620    3.4730 N   0  0  0  0  0  0  0  0  0  0  0  0
  -32.5800   51.2160    3.4930 C   0  0  0  0  0  0  0  0  0  0  0  0
  -31.8250   52.1810    3.3970 O   0  0  0  0  0  0  0  0  0  0  0  0
  -34.0700   51.4230    3.6730 C   0  0  0  0  0  0  0  0  0  0  0  0
  -34.5870   52.4040    2.6410 C   0  0  0  0  0  0  0  0  0  0  0  0
  -35.9020   52.9330    2.9770 N   0  0  0  0  0  0  0  0  0  0  0  0
  -36.0930   54.2030    3.3100 C   0  0  0  0  0  0  0  0  0  0  0  0
  -35.1630   54.9900    3.4760 O   0  0  0  0  0  0  0  0  0  0  0  0
  -40.8330   64.7550   -0.3190 C   0  0  0  0  0  0  0  0  0  0  0  0
  -37.0880   68.1390   -1.2410 N   0  0  0  0  0  0  0  0  0  0  0  0
  -39.5490   59.3000   -0.7550 O   0  5  0  0  0  0  0  0  0  0  0  0
  -38.4040   68.2820   -1.0380 C   0  0  0  0  0  0  0  0  0  0  0  0
  -41.6300   64.3050   -1.5360 C   0  0  0  0  0  0  0  0  0  0  0  0
  -42.0540   59.0550   -1.2180 O   0  0  0  0  0  0  0  0  0  0  0  0
  -41.8800   65.3360   -2.4670 O   0  0  0  0  0  0  0  0  0  0  0  0
  -42.8860   63.7360   -0.8690 C   0  0  0  0  0  0  0  0  0  0  0  0
  -39.3260   67.3520   -0.8000 N   0  0  0  0  0  0  0  0  0  0  0  0
  -41.2120   59.1420    1.1510 O   0  0  0  0  0  0  0  0  0  0  0  0
  -43.8040   64.7950   -0.6020 O   0  0  0  0  0  0  0  0  0  0  0  0
  -38.7700   66.1300   -0.7800 C   0  0  0  0  0  0  0  0  0  0  0  0
  -42.3460   63.1740    0.4510 C   0  0  0  0  0  0  0  0  0  0  0  0
  -41.8030   57.9250    3.2810 O   0  5  0  0  0  0  0  0  0  0  0  0
  -41.0040   63.7070    0.6010 O   0  0  0  0  0  0  0  0  0  0  0  0
  -37.4400   65.8220   -0.9680 C   0  0  0  0  0  0  0  0  0  0  0  0
  -42.2820   61.6690    0.5320 C   0  0  0  0  0  0  0  0  0  0  0  0
  -42.0560   56.7690    0.9930 O   0  0  0  0  0  0  0  0  0  0  0  0
  -41.1410   61.1890   -0.2230 O   0  0  0  0  0  0  0  0  0  0  0  0
  -36.5590   66.8920   -1.2120 C   0  0  0  0  0  0  0  0  0  0  0  0
  -35.2530   66.7440   -1.4150 N   0  0  0  0  0  0  0  0  0  0  0  0
  -39.7860   57.2600    1.9570 O   0  0  0  0  0  0  0  0  0  0  0  0
  -37.2480   64.4480   -0.8730 N   0  0  0  0  0  0  0  0  0  0  0  0
  -45.5980   63.5650   -1.8440 O   0  0  0  0  0  0  0  0  0  0  0  0
  -38.4430   63.9610   -0.6330 C   0  0  0  0  0  0  0  0  0  0  0  0
  -45.4150   63.2600    0.6460 O   0  5  0  0  0  0  0  0  0  0  0  0
  -39.4060   64.9380   -0.5610 N   0  0  0  0  0  0  0  0  0  0  0  0
  -46.2010   65.4540   -0.2970 O   0  0  0  0  0  0  0  0  0  0  0  0
  -39.4500   56.0350    2.6660 C   0  0  0  0  0  0  0  0  0  0  0  0
  1  2  1  0  0  0  0
  1  3  1  0  0  0  0
  1 18  1  0  0  0  0
  3  4  1  0  0  0  0
  3  5  1  0  0  0  0
  3 48  1  0  0  0  0
  6 22  1  0  0  0  0
  6 25  2  0  0  0  0
  6 29  1  0  0  0  0
  6 38  1  0  0  0  0
  7 29  1  0  0  0  0
  7 33  1  0  0  0  0
  7 37  2  0  0  0  0
  7 41  1  0  0  0  0
  8 30  1  0  0  0  0
  8 43  1  0  0  0  0
  8 45  1  0  0  0  0
  8 47  2  0  0  0  0
  9 10  1  0  0  0  0
 10 11  1  0  0  0  0
 11 12  1  0  0  0  0
 12 13  1  0  0  0  0
 13 14  2  0  0  0  0
 13 15  1  0  0  0  0
 15 16  1  0  0  0  0
 16 17  1  0  0  0  0
 17 18  1  0  0  0  0
 18 19  2  0  0  0  0
 20 24  1  0  0  0  0
 20 34  1  0  0  0  0
 20 46  1  0  0  0  0
 21 23  4  0  0  0  0
 21 39  4  0  0  0  0
 23 28  4  0  0  0  0
 24 26  1  0  0  0  0
 24 27  1  0  0  0  0
 27 30  1  0  0  0  0
 27 32  1  0  0  0  0
 28 31  4  0  0  0  0
 31 35  4  0  0  0  0
 31 46  4  0  0  0  0
 32 34  1  0  0  0  0
 32 36  1  0  0  0  0
 35 39  4  0  0  0  0
 35 42  4  0  0  0  0
 36 38  1  0  0  0  0
 39 40  1  0  0  0  0
 41 48  1  0  0  0  0
 42 44  4  0  0  0  0
 44 46  4  0  0  0  0
M  END
$$$$
