complex
  PyMOL3.0          3D                             0

 11 11  0  0  0  0  0  0  0  0999 V2000
   88.1210  -59.1200  -11.5140 C   0  0  0  0  0  0  0  0  0  0  0  0
   87.6600  -60.5720  -11.5130 C   0  0  0  0  0  0  0  0  0  0  0  0
   87.5880  -61.0490  -10.1640 O   0  0  0  0  0  0  0  0  0  0  0  0
   88.6220  -61.4460  -12.3100 C   0  0  0  0  0  0  0  0  0  0  0  0
   88.0550  -62.7510  -12.4760 O   0  0  0  0  0  0  0  0  0  0  0  0
   88.9070  -60.8380  -13.6780 C   0  0  0  0  0  0  0  0  0  0  0  0
   89.9820  -61.5510  -14.3010 O   0  0  0  0  0  0  0  0  0  0  0  0
   89.2790  -59.3650  -13.5570 C   0  0  0  0  0  0  0  0  0  0  0  0
   88.2470  -58.6680  -12.8600 O   0  0  0  0  0  0  0  0  0  0  0  0
   89.4760  -58.7370  -14.9320 C   0  0  0  0  0  0  0  0  0  0  0  0
   90.7450  -59.1370  -15.4620 O   0  0  0  0  0  0  0  0  0  0  0  0
  1  2  1  0  0  0  0
  1  9  1  0  0  0  0
  2  3  1  0  0  0  0
  2  4  1  0  0  0  0
  4  5  1  0  0  0  0
  4  6  1  0  0  0  0
  6  7  1  0  0  0  0
  6  8  1  0  0  0  0
  8  9  1  0  0  0  0
  8 10  1  0  0  0  0
 10 11  1  0  0  0  0
M  END
$$$$
