complex
  PyMOL3.0          3D                             0

  5  4  0  0  0  0  0  0  0  0999 V2000
  -11.2800  -17.5340  -18.5470 O   0  0  0  0  0  0  0  0  0  0  0  0
  -10.2400  -18.7410  -16.8320 O   0  0  0  0  0  0  0  0  0  0  0  0
  -12.5070  -18.3470  -16.8070 O   0  5  0  0  0  0  0  0  0  0  0  0
  -10.9780  -16.5610  -16.3620 O   0  0  0  0  0  0  0  0  0  0  0  0
  -11.2760  -17.7810  -17.1460 S   0  0  0  0  0  0  0  0  0  0  0  0
  1  5  1  0  0  0  0
  2  5  1  0  0  0  0
  3  5  1  0  0  0  0
  4  5  2  0  0  0  0
M  END
$$$$
