complex
  PyMOL3.0          3D                             0

 25 28  0  0  0  0  0  0  0  0999 V2000
   -7.7940   14.1330  -89.9240 P   0  0  0  0  0  0  0  0  0  0  0  0
   -5.3960   13.7350  -88.8980 C   0  0  0  0  0  0  0  0  0  0  0  0
   -6.1900   14.3070  -89.9690 O   0  0  0  0  0  0  0  0  0  0  0  0
   -3.9870   14.2640  -88.9920 C   0  0  0  0  0  0  0  0  0  0  0  0
   -3.4340   13.8600  -90.2630 O   0  0  0  0  0  0  0  0  0  0  0  0
   -3.9180   15.7850  -89.0060 C   0  0  0  0  0  0  0  0  0  0  0  0
   -2.6010   16.2430  -88.7280 O   0  0  0  0  0  0  0  0  0  0  0  0
   -4.2800   16.0500  -90.4600 C   0  0  0  0  0  0  0  0  0  0  0  0
   -3.4640   14.9730  -91.1560 C   0  0  0  0  0  0  0  0  0  0  0  0
   -5.5950   14.0230  -93.9470 N   0  0  0  0  0  0  0  0  0  0  0  0
   -5.3890   14.4280  -92.7130 C   0  0  0  0  0  0  0  0  0  0  0  0
   -3.3690   14.1880  -93.5450 C   0  0  0  0  0  0  0  0  0  0  0  0
   -4.0520   14.5380  -92.4120 N   0  0  0  0  0  0  0  0  0  0  0  0
   -2.0440   14.1500  -93.7330 N   0  0  0  0  0  0  0  0  0  0  0  0
   -1.6550   13.7600  -94.9550 C   0  0  0  0  0  0  0  0  0  0  0  0
   -2.5410   13.4120  -95.9830 C   0  0  0  0  0  0  0  0  0  0  0  0
   -3.9220   13.4600  -95.7790 C   0  0  0  0  0  0  0  0  0  0  0  0
   -4.3210   13.8630  -94.4880 C   0  0  0  0  0  0  0  0  0  0  0  0
   -4.3950   13.1650  -98.5060 S   0  0  0  0  0  0  0  0  0  0  0  0
   -4.8680   13.0980  -96.8450 C   0  0  0  0  0  0  0  0  0  0  0  0
   -6.1980   12.7280  -96.7340 C   0  0  0  0  0  0  0  0  0  0  0  0
   -6.7850   12.4810  -98.0040 C   0  0  0  0  0  0  0  0  0  0  0  0
   -5.9330   12.6770  -99.0340 C   0  0  0  0  0  0  0  0  0  0  0  0
   -8.3640   14.8850  -91.1100 O   0  5  0  0  0  0  0  0  0  0  0  0
   -8.0900   12.6430  -89.9280 O   0  5  0  0  0  0  0  0  0  0  0  0
  1  3  1  0  0  0  0
  1 24  1  0  0  0  0
  1 25  2  0  0  0  0
  2  3  1  0  0  0  0
  2  4  1  0  0  0  0
  4  5  1  0  0  0  0
  4  6  1  0  0  0  0
  5  9  1  0  0  0  0
  6  7  1  0  0  0  0
  6  8  1  0  0  0  0
  8  9  1  0  0  0  0
  9 13  1  0  0  0  0
 10 11  4  0  0  0  0
 10 18  4  0  0  0  0
 11 13  4  0  0  0  0
 12 13  4  0  0  0  0
 12 14  4  0  0  0  0
 12 18  4  0  0  0  0
 14 15  4  0  0  0  0
 15 16  4  0  0  0  0
 16 17  4  0  0  0  0
 17 18  4  0  0  0  0
 17 20  1  0  0  0  0
 19 20  4  0  0  0  0
 19 23  4  0  0  0  0
 20 21  4  0  0  0  0
 21 22  4  0  0  0  0
 22 23  4  0  0  0  0
M  END
$$$$
