complex
  PyMOL3.0          3D                             0

 11 11  0  0  0  0  0  0  0  0999 V2000
  216.6770  182.9220  263.0350 C   0  0  0  0  0  0  0  0  0  0  0  0
  217.6330  183.7080  262.0800 C   0  0  0  0  0  0  0  0  0  0  0  0
  218.9600  183.7770  262.6050 O   0  0  0  0  0  0  0  0  0  0  0  0
  217.7550  182.9910  260.7290 C   0  0  0  0  0  0  0  0  0  0  0  0
  218.6610  183.6580  259.8590 O   0  0  0  0  0  0  0  0  0  0  0  0
  218.1750  181.5220  260.9090 C   0  0  0  0  0  0  0  0  0  0  0  0
  218.2600  180.8840  259.6460 O   0  0  0  0  0  0  0  0  0  0  0  0
  217.1320  180.8000  261.7770 C   0  0  0  0  0  0  0  0  0  0  0  0
  216.9650  181.5030  263.0560 O   0  0  0  0  0  0  0  0  0  0  0  0
  217.5160  179.3720  262.0980 C   0  0  0  0  0  0  0  0  0  0  0  0
  216.6490  178.9030  263.1240 O   0  0  0  0  0  0  0  0  0  0  0  0
  1  2  1  0  0  0  0
  1  9  1  0  0  0  0
  2  3  1  0  0  0  0
  2  4  1  0  0  0  0
  4  5  1  0  0  0  0
  4  6  1  0  0  0  0
  6  7  1  0  0  0  0
  6  8  1  0  0  0  0
  8  9  1  0  0  0  0
  8 10  1  0  0  0  0
 10 11  1  0  0  0  0
M  END
$$$$
