complex
  PyMOL3.0          3D                             0

 24 24  0  0  0  0  0  0  0  0999 V2000
   16.8070   -1.2070 -131.9320 N   0  0  0  0  0  0  0  0  0  0  0  0
   17.4260   -2.3780 -131.2460 C   0  0  0  0  0  0  0  0  0  0  0  0
   18.8450   -2.6450 -131.7660 C   0  0  0  0  0  0  0  0  0  0  0  0
   19.6930   -3.0710 -130.9740 O   0  0  0  0  0  0  0  0  0  0  0  0
   16.5210   -3.6030 -131.3910 C   0  0  0  0  0  0  0  0  0  0  0  0
   15.3100   -3.5410 -130.4780 C   0  0  0  0  0  0  0  0  0  0  0  0
   14.2340   -4.5660 -130.7840 C   0  0  0  0  0  0  0  0  0  0  0  0
   13.2890   -4.7530 -129.6220 C   0  0  0  0  0  0  0  0  0  0  0  0
   11.9040   -4.5540 -130.0430 N   0  0  0  0  0  0  0  0  0  0  0  0
   11.8690   -0.6410 -125.9790 P   0  0  0  0  0  0  0  0  0  0  0  0
    9.9550   -1.7830 -127.5270 C   0  0  0  0  0  0  0  0  0  0  0  0
   11.1660   -3.7870 -129.3530 C   0  0  0  0  0  0  0  0  0  0  0  0
   10.3950   -0.6480 -133.1620 C   0  0  0  0  0  0  0  0  0  0  0  0
    9.7620   -0.0970 -130.8770 N   0  0  0  0  0  0  0  0  0  0  0  0
   10.3030   -0.9830 -131.7100 C   0  0  0  0  0  0  0  0  0  0  0  0
   10.7740   -2.2130 -131.2330 C   0  0  0  0  0  0  0  0  0  0  0  0
   11.3150   -3.0800 -132.1220 O   0  0  0  0  0  0  0  0  0  0  0  0
   10.6750   -2.5100 -129.8610 C   0  0  0  0  0  0  0  0  0  0  0  0
   10.0870   -1.5600 -129.0070 C   0  0  0  0  0  0  0  0  0  0  0  0
    9.6630   -0.3810 -129.5600 C   0  0  0  0  0  0  0  0  0  0  0  0
   12.3010    0.4990 -126.8790 O   0  0  0  0  0  0  0  0  0  0  0  0
   10.7410   -0.2510 -125.0430 O   0  5  0  0  0  0  0  0  0  0  0  0
   13.0430   -1.2900 -125.2840 O   0  0  0  0  0  0  0  0  0  0  0  0
   11.2770   -1.8190 -126.9040 O   0  0  0  0  0  0  0  0  0  0  0  0
  1  2  1  0  0  0  0
  2  3  1  0  0  0  0
  2  5  1  0  0  0  0
  3  4  2  0  0  0  0
  5  6  1  0  0  0  0
  6  7  1  0  0  0  0
  7  8  1  0  0  0  0
  8  9  1  0  0  0  0
  9 12  2  0  0  0  0
 10 21  1  0  0  0  0
 10 22  1  0  0  0  0
 10 23  2  0  0  0  0
 10 24  1  0  0  0  0
 11 19  1  0  0  0  0
 11 24  1  0  0  0  0
 12 18  1  0  0  0  0
 13 15  1  0  0  0  0
 14 15  4  0  0  0  0
 14 20  4  0  0  0  0
 15 16  4  0  0  0  0
 16 17  1  0  0  0  0
 16 18  4  0  0  0  0
 18 19  4  0  0  0  0
 19 20  4  0  0  0  0
M  END
$$$$
