complex
  PyMOL3.0          3D                             0

 11 11  0  0  0  0  0  0  0  0999 V2000
  -47.0230  -55.4550  -95.1890 C   0  0  0  0  0  0  0  0  0  0  0  0
  -47.9540  -54.6790  -94.2730 C   0  0  0  0  0  0  0  0  0  0  0  0
  -49.2160  -55.3430  -94.2790 O   0  0  0  0  0  0  0  0  0  0  0  0
  -48.1380  -53.2430  -94.7210 C   0  0  0  0  0  0  0  0  0  0  0  0
  -48.7680  -52.4930  -93.6850 O   0  0  0  0  0  0  0  0  0  0  0  0
  -46.7970  -52.6180  -95.0250 C   0  0  0  0  0  0  0  0  0  0  0  0
  -46.9920  -51.2740  -95.4590 O   0  0  0  0  0  0  0  0  0  0  0  0
  -46.1420  -53.4570  -96.0940 C   0  0  0  0  0  0  0  0  0  0  0  0
  -45.8500  -54.7170  -95.5140 O   0  0  0  0  0  0  0  0  0  0  0  0
  -44.8470  -52.8680  -96.6090 C   0  0  0  0  0  0  0  0  0  0  0  0
  -44.5290  -53.5440  -97.8270 O   0  0  0  0  0  0  0  0  0  0  0  0
  1  2  1  0  0  0  0
  1  9  1  0  0  0  0
  2  3  1  0  0  0  0
  2  4  1  0  0  0  0
  4  5  1  0  0  0  0
  4  6  1  0  0  0  0
  6  7  1  0  0  0  0
  6  8  1  0  0  0  0
  8  9  1  0  0  0  0
  8 10  1  0  0  0  0
 10 11  1  0  0  0  0
M  END
$$$$
