complex
  PyMOL3.0          3D                             0

 27 29  0  0  0  0  0  0  0  0999 V2000
  142.5960  146.9410  216.5480 P   0  0  0  0  0  0  0  0  0  0  0  0
  141.8940  148.2130  214.1760 P   0  0  0  0  0  0  0  0  0  0  0  0
  143.6990  146.4200  218.8540 C   0  0  0  0  0  0  0  0  0  0  0  0
  143.6980  147.2290  217.6820 O   0  0  0  0  0  0  0  0  0  0  0  0
  145.0790  146.4330  219.4920 C   0  0  0  0  0  0  0  0  0  0  0  0
  145.3560  147.7100  220.0670 O   0  0  0  0  0  0  0  0  0  0  0  0
  145.1800  145.4170  220.6180 C   0  0  0  0  0  0  0  0  0  0  0  0
  145.9610  144.2950  220.1980 O   0  0  0  0  0  0  0  0  0  0  0  0
  145.8740  146.1340  221.7570 C   0  0  0  0  0  0  0  0  0  0  0  0
  147.0980  145.4700  222.0830 O   0  0  0  0  0  0  0  0  0  0  0  0
  146.1600  147.5330  221.2350 C   0  0  0  0  0  0  0  0  0  0  0  0
  148.0310  150.5080  225.1140 N   0  0  0  0  0  0  0  0  0  0  0  0
  142.9400  145.6240  215.8960 O   0  5  0  0  0  0  0  0  0  0  0  0
  142.5060  149.3330  213.3710 O   0  0  0  0  0  0  0  0  0  0  0  0
  148.6570  149.6210  224.3190 C   0  0  0  0  0  0  0  0  0  0  0  0
  141.2330  147.1390  217.1640 O   0  0  0  0  0  0  0  0  0  0  0  0
  140.5280  148.5200  214.7400 O   0  5  0  0  0  0  0  0  0  0  0  0
  148.0380  148.9210  223.3530 N   0  0  0  0  0  0  0  0  0  0  0  0
  142.8380  148.1130  215.4750 O   0  0  0  0  0  0  0  0  0  0  0  0
  142.0040  146.8500  213.5380 O   0  0  0  0  0  0  0  0  0  0  0  0
  146.7130  149.0780  223.1230 C   0  0  0  0  0  0  0  0  0  0  0  0
  145.9580  150.0290  223.9480 C   0  0  0  0  0  0  0  0  0  0  0  0
  146.7100  150.7630  224.9930 C   0  0  0  0  0  0  0  0  0  0  0  0
  146.0920  151.6590  225.7990 N   0  0  0  0  0  0  0  0  0  0  0  0
  144.6850  149.9890  223.5150 N   0  0  0  0  0  0  0  0  0  0  0  0
  144.6280  149.0900  222.4990 C   0  0  0  0  0  0  0  0  0  0  0  0
  145.8380  148.5490  222.2670 N   0  0  0  0  0  0  0  0  0  0  0  0
  1  4  1  0  0  0  0
  1 13  1  0  0  0  0
  1 16  2  0  0  0  0
  1 19  1  0  0  0  0
  2 14  1  0  0  0  0
  2 17  1  0  0  0  0
  2 19  1  0  0  0  0
  2 20  2  0  0  0  0
  3  4  1  0  0  0  0
  3  5  1  0  0  0  0
  5  6  1  0  0  0  0
  5  7  1  0  0  0  0
  6 11  1  0  0  0  0
  7  8  1  0  0  0  0
  7  9  1  0  0  0  0
  9 10  1  0  0  0  0
  9 11  1  0  0  0  0
 11 27  1  0  0  0  0
 12 15  4  0  0  0  0
 12 23  4  0  0  0  0
 15 18  4  0  0  0  0
 18 21  4  0  0  0  0
 21 22  4  0  0  0  0
 21 27  4  0  0  0  0
 22 23  4  0  0  0  0
 22 25  4  0  0  0  0
 23 24  1  0  0  0  0
 25 26  4  0  0  0  0
 26 27  4  0  0  0  0
M  END
$$$$
