complex
  PyMOL3.0          3D                             0

  5  4  0  0  0  0  0  0  0  0999 V2000
   -7.2850   10.4790  -19.4900 O   0  0  0  0  0  0  0  0  0  0  0  0
   -9.6470   10.5760  -19.1730 O   0  0  0  0  0  0  0  0  0  0  0  0
   -8.3300    9.0700  -17.8740 O   0  5  0  0  0  0  0  0  0  0  0  0
   -8.1820   11.4190  -17.4910 O   0  0  0  0  0  0  0  0  0  0  0  0
   -8.3610   10.3860  -18.5070 S   0  0  0  0  0  0  0  0  0  0  0  0
  1  5  1  0  0  0  0
  2  5  1  0  0  0  0
  3  5  1  0  0  0  0
  4  5  2  0  0  0  0
M  END
$$$$
