complex
  PyMOL3.0          3D                             0

 11 11  0  0  0  0  0  0  0  0999 V2000
  -25.6920  -69.1400 -119.2910 C   0  0  0  0  0  0  0  0  0  0  0  0
  -25.4570  -69.7460 -117.9280 C   0  0  0  0  0  0  0  0  0  0  0  0
  -24.4170  -69.0170 -117.2830 O   0  0  0  0  0  0  0  0  0  0  0  0
  -25.0450  -71.1950 -118.0680 C   0  0  0  0  0  0  0  0  0  0  0  0
  -25.0440  -71.8010 -116.7790 O   0  0  0  0  0  0  0  0  0  0  0  0
  -26.0060  -71.9570 -118.9590 C   0  0  0  0  0  0  0  0  0  0  0  0
  -25.4330  -73.2340 -119.2350 O   0  0  0  0  0  0  0  0  0  0  0  0
  -26.2510  -71.2190 -120.2610 C   0  0  0  0  0  0  0  0  0  0  0  0
  -26.6760  -69.8910 -119.9860 O   0  0  0  0  0  0  0  0  0  0  0  0
  -27.3190  -71.9010 -121.0910 C   0  0  0  0  0  0  0  0  0  0  0  0
  -27.3360  -71.2870 -122.3800 O   0  0  0  0  0  0  0  0  0  0  0  0
  1  2  1  0  0  0  0
  1  9  1  0  0  0  0
  2  3  1  0  0  0  0
  2  4  1  0  0  0  0
  4  5  1  0  0  0  0
  4  6  1  0  0  0  0
  6  7  1  0  0  0  0
  6  8  1  0  0  0  0
  8  9  1  0  0  0  0
  8 10  1  0  0  0  0
 10 11  1  0  0  0  0
M  END
$$$$
