complex
  PyMOL3.0          3D                             0

  5  4  0  0  0  0  0  0  0  0999 V2000
   10.3930   22.1710   45.8980 O   0  0  0  0  0  0  0  0  0  0  0  0
    8.6260   23.2380   47.0900 O   0  0  0  0  0  0  0  0  0  0  0  0
    9.8170   21.4260   48.0870 O   0  5  0  0  0  0  0  0  0  0  0  0
   10.8840   23.5400   47.8020 O   0  0  0  0  0  0  0  0  0  0  0  0
    9.9320   22.5950   47.2190 S   0  0  0  0  0  0  0  0  0  0  0  0
  1  5  1  0  0  0  0
  2  5  1  0  0  0  0
  3  5  1  0  0  0  0
  4  5  2  0  0  0  0
M  END
$$$$
