complex
  PyMOL3.0          3D                             0

 44 48  0  0  0  0  0  0  0  0999 V2000
  215.8600  301.4670  247.8980 P   0  0  0  0  0  0  0  0  0  0  0  0
  214.0860  300.7380  245.6410 P   0  0  0  0  0  0  0  0  0  0  0  0
  216.1630  307.4570  248.7280 C   0  0  0  0  0  0  0  0  0  0  0  0
  208.7970  301.0980  245.3040 C   0  0  0  0  0  0  0  0  0  0  0  0
  214.1530  312.2070  248.8250 N   0  0  0  0  0  0  0  0  0  0  0  0
  208.4110  299.8990  244.5060 N   0  0  0  0  0  0  0  0  0  0  0  0
  215.5590  301.4040  249.3580 O   0  5  0  0  0  0  0  0  0  0  0  0
  214.2970  299.2600  245.6290 O   0  5  0  0  0  0  0  0  0  0  0  0
  214.9300  311.5820  247.9330 C   0  0  0  0  0  0  0  0  0  0  0  0
  217.0710  306.6170  249.6140 C   0  0  0  0  0  0  0  0  0  0  0  0
  209.3460  300.7300  246.6740 C   0  0  0  0  0  0  0  0  0  0  0  0
  207.2250  299.8840  243.8160 C   0  0  0  0  0  0  0  0  0  0  0  0
  216.8620  300.5100  247.3420 O   0  0  0  0  0  0  0  0  0  0  0  0
  218.1640  307.3250  250.1560 O   0  0  0  0  0  0  0  0  0  0  0  0
  208.3350  300.3300  247.5850 O   0  0  0  0  0  0  0  0  0  0  0  0
  214.7570  301.5510  244.5850 O   0  0  0  0  0  0  0  0  0  0  0  0
  217.4680  305.5290  248.6110 C   0  0  0  0  0  0  0  0  0  0  0  0
  210.0690  302.0220  247.0660 C   0  0  0  0  0  0  0  0  0  0  0  0
  206.8520  298.7640  243.0860 C   0  0  0  0  0  0  0  0  0  0  0  0
  215.4160  310.3440  247.9630 N   0  0  0  0  0  0  0  0  0  0  0  0
  214.4860  301.3150  247.0840 O   0  0  0  0  0  0  0  0  0  0  0  0
  218.5300  306.0050  247.7950 O   0  0  0  0  0  0  0  0  0  0  0  0
  209.1510  302.9730  247.5880 O   0  0  0  0  0  0  0  0  0  0  0  0
  215.0300  309.7000  249.0760 C   0  0  0  0  0  0  0  0  0  0  0  0
  216.1980  305.3670  247.7590 C   0  0  0  0  0  0  0  0  0  0  0  0
  210.5990  302.5080  245.7090 C   0  0  0  0  0  0  0  0  0  0  0  0
  207.7060  297.6680  243.0450 C   0  0  0  0  0  0  0  0  0  0  0  0
  215.3460  306.4870  248.1200 O   0  0  0  0  0  0  0  0  0  0  0  0
  209.9530  301.6730  244.7230 O   0  0  0  0  0  0  0  0  0  0  0  0
  214.2330  310.2100  250.0810 C   0  0  0  0  0  0  0  0  0  0  0  0
  215.4390  304.0730  247.9250 C   0  0  0  0  0  0  0  0  0  0  0  0
  212.0930  302.4310  245.5150 C   0  0  0  0  0  0  0  0  0  0  0  0
  208.9030  297.7080  243.7230 C   0  0  0  0  0  0  0  0  0  0  0  0
  216.2950  302.9670  247.5300 O   0  0  0  0  0  0  0  0  0  0  0  0
  212.5150  301.0500  245.6230 O   0  0  0  0  0  0  0  0  0  0  0  0
  213.7750  311.5340  249.9370 C   0  0  0  0  0  0  0  0  0  0  0  0
  209.2330  298.8280  244.4510 C   0  0  0  0  0  0  0  0  0  0  0  0
  213.0060  312.1510  250.8270 N   0  0  0  0  0  0  0  0  0  0  0  0
  205.5340  298.7860  242.3540 C   0  0  0  0  0  0  0  0  0  0  0  0
  214.0410  309.2600  251.0740 N   0  0  0  0  0  0  0  0  0  0  0  0
  205.1550  297.6760  241.7390 N   0  0  0  0  0  0  0  0  0  0  0  0
  204.8620  299.8140  242.3510 O   0  0  0  0  0  0  0  0  0  0  0  0
  214.7160  308.2180  250.6610 C   0  0  0  0  0  0  0  0  0  0  0  0
  215.3330  308.4130  249.4510 N   0  0  0  0  0  0  0  0  0  0  0  0
  1  7  1  0  0  0  0
  1 13  2  0  0  0  0
  1 21  1  0  0  0  0
  1 34  1  0  0  0  0
  2  8  1  0  0  0  0
  2 16  2  0  0  0  0
  2 21  1  0  0  0  0
  2 35  1  0  0  0  0
  3 10  1  0  0  0  0
  3 28  1  0  0  0  0
  3 44  1  0  0  0  0
  4  6  1  0  0  0  0
  4 11  1  0  0  0  0
  4 29  1  0  0  0  0
  5  9  4  0  0  0  0
  5 36  4  0  0  0  0
  6 12  4  0  0  0  0
  6 37  4  0  0  0  0
  9 20  4  0  0  0  0
 10 14  1  0  0  0  0
 10 17  1  0  0  0  0
 11 15  1  0  0  0  0
 11 18  1  0  0  0  0
 12 19  4  0  0  0  0
 17 22  1  0  0  0  0
 17 25  1  0  0  0  0
 18 23  1  0  0  0  0
 18 26  1  0  0  0  0
 19 27  4  0  0  0  0
 19 39  1  0  0  0  0
 20 24  4  0  0  0  0
 24 30  4  0  0  0  0
 24 44  4  0  0  0  0
 25 28  1  0  0  0  0
 25 31  1  0  0  0  0
 26 29  1  0  0  0  0
 26 32  1  0  0  0  0
 27 33  4  0  0  0  0
 30 36  4  0  0  0  0
 30 40  4  0  0  0  0
 31 34  1  0  0  0  0
 32 35  1  0  0  0  0
 33 37  4  0  0  0  0
 36 38  1  0  0  0  0
 39 41  1  0  0  0  0
 39 42  2  0  0  0  0
 40 43  4  0  0  0  0
 43 44  4  0  0  0  0
M  END
$$$$
