complex
  PyMOL3.0          3D                             0

 11 11  0  0  0  0  0  0  0  0999 V2000
   23.3020  -32.8250   49.4770 C   0  0  0  0  0  0  0  0  0  0  0  0
   22.8440  -32.1530   48.1880 C   0  0  0  0  0  0  0  0  0  0  0  0
   23.6450  -30.9910   47.9450 O   0  0  0  0  0  0  0  0  0  0  0  0
   21.3770  -31.7480   48.2730 C   0  0  0  0  0  0  0  0  0  0  0  0
   20.9210  -31.3340   46.9810 O   0  0  0  0  0  0  0  0  0  0  0  0
   20.5190  -32.9070   48.7670 C   0  0  0  0  0  0  0  0  0  0  0  0
   19.1960  -32.4350   49.0460 O   0  0  0  0  0  0  0  0  0  0  0  0
   21.1130  -33.5280   50.0260 C   0  0  0  0  0  0  0  0  0  0  0  0
   22.4550  -33.9340   49.7690 O   0  0  0  0  0  0  0  0  0  0  0  0
   20.2970  -34.7330   50.4760 C   0  0  0  0  0  0  0  0  0  0  0  0
   19.1540  -34.2880   51.2150 O   0  0  0  0  0  0  0  0  0  0  0  0
  1  2  1  0  0  0  0
  1  9  1  0  0  0  0
  2  3  1  0  0  0  0
  2  4  1  0  0  0  0
  4  5  1  0  0  0  0
  4  6  1  0  0  0  0
  6  7  1  0  0  0  0
  6  8  1  0  0  0  0
  8  9  1  0  0  0  0
  8 10  1  0  0  0  0
 10 11  1  0  0  0  0
M  END
$$$$
