complex
  PyMOL3.0          3D                             0

 12 11  0  0  0  0  0  0  0  0999 V2000
   13.4420   -6.7840    9.1750 C   0  0  0  0  0  0  0  0  0  0  0  0
   14.1810   -7.7440    9.1350 O   0  0  0  0  0  0  0  0  0  0  0  0
   13.0530   -6.1400    7.8710 C   0  0  0  0  0  0  0  0  0  0  0  0
   12.9930   -6.3230   10.2030 O   0  0  0  0  0  0  0  0  0  0  0  0
   12.7180   -4.7070    7.9820 C   0  0  0  0  0  0  0  0  0  0  0  0
   12.3440   -4.6260    5.6520 O   0  0  0  0  0  0  0  0  0  0  0  0
   12.2120   -4.0650    6.7070 C   0  0  0  0  0  0  0  0  0  0  0  0
   11.7130   -2.9510    6.8410 O   0  0  0  0  0  0  0  0  0  0  0  0
   12.2830   -6.6240    7.5070 H   0  0  0  0  0  0  0  0  0  0  0  0
   13.7940   -6.2500    7.2400 H   0  0  0  0  0  0  0  0  0  0  0  0
   13.5120   -4.2150    8.2760 H   0  0  0  0  0  0  0  0  0  0  0  0
   12.0330   -4.5920    8.6730 H   0  0  0  0  0  0  0  0  0  0  0  0
  1  2  4  0  0  0  0
  1  3  1  0  0  0  0
  1  4  4  0  0  0  0
  3  5  1  0  0  0  0
  3  9  1  0  0  0  0
  3 10  1  0  0  0  0
  5  7  1  0  0  0  0
  5 11  1  0  0  0  0
  5 12  1  0  0  0  0
  6  7  4  0  0  0  0
  7  8  4  0  0  0  0
M  END
$$$$
