complex
  PyMOL3.0          3D                             0

  5  4  0  0  0  0  0  0  0  0999 V2000
   -5.1980   -8.3010  -16.4570 O   0  0  0  0  0  0  0  0  0  0  0  0
   -4.9780  -10.4030  -17.6300 O   0  0  0  0  0  0  0  0  0  0  0  0
   -4.4360  -10.2980  -15.3730 O   0  5  0  0  0  0  0  0  0  0  0  0
   -6.7830   -9.9650  -16.0180 O   0  0  0  0  0  0  0  0  0  0  0  0
   -5.3650   -9.7520  -16.3740 S   0  0  0  0  0  0  0  0  0  0  0  0
  1  5  1  0  0  0  0
  2  5  1  0  0  0  0
  3  5  1  0  0  0  0
  4  5  2  0  0  0  0
M  END
$$$$
