complex
  PyMOL3.0          3D                             0

 12 12  0  0  0  0  0  0  0  0999 V2000
  -52.5220  -40.3290  -26.9490 C   0  0  0  0  0  0  0  0  0  0  0  0
  -53.2140  -40.4830  -25.7200 O   0  0  0  0  0  0  0  0  0  0  0  0
  -51.1100  -40.8520  -26.7130 C   0  0  0  0  0  0  0  0  0  0  0  0
  -51.3080  -42.1790  -26.1780 O   0  0  0  0  0  0  0  0  0  0  0  0
  -50.3890  -39.8740  -25.7420 C   0  0  0  0  0  0  0  0  0  0  0  0
  -49.0280  -40.1880  -25.4040 O   0  0  0  0  0  0  0  0  0  0  0  0
  -50.4740  -38.4270  -26.2360 C   0  0  0  0  0  0  0  0  0  0  0  0
  -49.7960  -37.5280  -25.3320 O   0  0  0  0  0  0  0  0  0  0  0  0
  -51.9480  -38.0440  -26.3610 C   0  0  0  0  0  0  0  0  0  0  0  0
  -52.5700  -38.9350  -27.3000 O   0  0  0  0  0  0  0  0  0  0  0  0
  -52.1500  -36.5700  -26.7600 C   0  0  0  0  0  0  0  0  0  0  0  0
  -53.1390  -35.9290  -25.9420 O   0  0  0  0  0  0  0  0  0  0  0  0
  1  2  1  0  0  0  0
  1  3  1  0  0  0  0
  1 10  1  0  0  0  0
  3  4  1  0  0  0  0
  3  5  1  0  0  0  0
  5  6  1  0  0  0  0
  5  7  1  0  0  0  0
  7  8  1  0  0  0  0
  7  9  1  0  0  0  0
  9 10  1  0  0  0  0
  9 11  1  0  0  0  0
 11 12  1  0  0  0  0
M  END
$$$$
