complex
  PyMOL3.0          3D                             0

 44 48  0  0  0  0  0  0  0  0999 V2000
  -29.6860  -47.0050  -60.0480 P   0  0  0  0  0  0  0  0  0  0  0  0
  -31.2140  -48.9570  -58.4460 P   0  0  0  0  0  0  0  0  0  0  0  0
  -32.8180  -43.7060  -62.6520 C   0  0  0  0  0  0  0  0  0  0  0  0
  -27.8920  -51.9110  -54.6100 C   0  0  0  0  0  0  0  0  0  0  0  0
  -36.4380  -40.0700  -62.3630 N   0  0  0  0  0  0  0  0  0  0  0  0
  -28.5180  -52.3810  -53.3610 N   0  0  0  0  0  0  0  0  0  0  0  0
  -29.1110  -46.2560  -58.9020 O   0  5  0  0  0  0  0  0  0  0  0  0
  -31.9710  -50.0960  -59.0240 O   0  5  0  0  0  0  0  0  0  0  0  0
  -36.0490  -40.8750  -63.3570 C   0  0  0  0  0  0  0  0  0  0  0  0
  -31.2980  -43.6350  -62.6830 C   0  0  0  0  0  0  0  0  0  0  0  0
  -27.6470  -53.0030  -55.6480 C   0  0  0  0  0  0  0  0  0  0  0  0
  -27.8560  -52.2080  -52.1700 C   0  0  0  0  0  0  0  0  0  0  0  0
  -28.8240  -47.1960  -61.2440 O   0  0  0  0  0  0  0  0  0  0  0  0
  -30.8350  -42.6620  -63.5910 O   0  0  0  0  0  0  0  0  0  0  0  0
  -26.4790  -53.7190  -55.2830 O   0  0  0  0  0  0  0  0  0  0  0  0
  -31.9750  -47.8040  -57.8960 O   0  0  0  0  0  0  0  0  0  0  0  0
  -30.9400  -45.0590  -63.1210 C   0  0  0  0  0  0  0  0  0  0  0  0
  -27.4820  -52.1410  -56.9060 C   0  0  0  0  0  0  0  0  0  0  0  0
  -28.4320  -52.6440  -50.9840 C   0  0  0  0  0  0  0  0  0  0  0  0
  -35.0920  -41.7940  -63.3710 N   0  0  0  0  0  0  0  0  0  0  0  0
  -30.1790  -48.4400  -59.5500 O   0  0  0  0  0  0  0  0  0  0  0  0
  -30.8190  -45.1390  -64.5340 O   0  0  0  0  0  0  0  0  0  0  0  0
  -26.1380  -51.7190  -57.0770 O   0  0  0  0  0  0  0  0  0  0  0  0
  -34.4880  -41.8710  -62.1780 C   0  0  0  0  0  0  0  0  0  0  0  0
  -32.1200  -45.9140  -62.6300 C   0  0  0  0  0  0  0  0  0  0  0  0
  -28.3890  -50.9250  -56.6430 C   0  0  0  0  0  0  0  0  0  0  0  0
  -29.6740  -53.2580  -51.0090 C   0  0  0  0  0  0  0  0  0  0  0  0
  -33.0980  -44.9740  -62.1210 O   0  0  0  0  0  0  0  0  0  0  0  0
  -28.7690  -51.0080  -55.2530 O   0  0  0  0  0  0  0  0  0  0  0  0
  -34.7770  -41.1170  -61.0590 C   0  0  0  0  0  0  0  0  0  0  0  0
  -31.8120  -46.9430  -61.5700 C   0  0  0  0  0  0  0  0  0  0  0  0
  -29.6210  -50.8190  -57.5060 C   0  0  0  0  0  0  0  0  0  0  0  0
  -30.3270  -53.4340  -52.2130 C   0  0  0  0  0  0  0  0  0  0  0  0
  -31.0670  -46.3320  -60.4920 O   0  0  0  0  0  0  0  0  0  0  0  0
  -30.2060  -49.5090  -57.3350 O   0  0  0  0  0  0  0  0  0  0  0  0
  -35.8120  -40.1690  -61.1690 C   0  0  0  0  0  0  0  0  0  0  0  0
  -29.7440  -52.9970  -53.3840 C   0  0  0  0  0  0  0  0  0  0  0  0
  -36.2030  -39.3770  -60.1770 N   0  0  0  0  0  0  0  0  0  0  0  0
  -27.6910  -52.4170  -49.7030 C   0  0  0  0  0  0  0  0  0  0  0  0
  -33.9470  -41.4740  -60.0100 N   0  0  0  0  0  0  0  0  0  0  0  0
  -26.6030  -51.6600  -49.7340 N   0  0  0  0  0  0  0  0  0  0  0  0
  -28.1140  -52.9180  -48.6530 O   0  0  0  0  0  0  0  0  0  0  0  0
  -33.1870  -42.4160  -60.5030 C   0  0  0  0  0  0  0  0  0  0  0  0
  -33.4590  -42.7020  -61.8150 N   0  0  0  0  0  0  0  0  0  0  0  0
  1  7  1  0  0  0  0
  1 13  2  0  0  0  0
  1 21  1  0  0  0  0
  1 34  1  0  0  0  0
  2  8  1  0  0  0  0
  2 16  2  0  0  0  0
  2 21  1  0  0  0  0
  2 35  1  0  0  0  0
  3 10  1  0  0  0  0
  3 28  1  0  0  0  0
  3 44  1  0  0  0  0
  4  6  1  0  0  0  0
  4 11  1  0  0  0  0
  4 29  1  0  0  0  0
  5  9  4  0  0  0  0
  5 36  4  0  0  0  0
  6 12  4  0  0  0  0
  6 37  4  0  0  0  0
  9 20  4  0  0  0  0
 10 14  1  0  0  0  0
 10 17  1  0  0  0  0
 11 15  1  0  0  0  0
 11 18  1  0  0  0  0
 12 19  4  0  0  0  0
 17 22  1  0  0  0  0
 17 25  1  0  0  0  0
 18 23  1  0  0  0  0
 18 26  1  0  0  0  0
 19 27  4  0  0  0  0
 19 39  1  0  0  0  0
 20 24  4  0  0  0  0
 24 30  4  0  0  0  0
 24 44  4  0  0  0  0
 25 28  1  0  0  0  0
 25 31  1  0  0  0  0
 26 29  1  0  0  0  0
 26 32  1  0  0  0  0
 27 33  4  0  0  0  0
 30 36  4  0  0  0  0
 30 40  4  0  0  0  0
 31 34  1  0  0  0  0
 32 35  1  0  0  0  0
 33 37  4  0  0  0  0
 36 38  1  0  0  0  0
 39 41  1  0  0  0  0
 39 42  2  0  0  0  0
 40 43  4  0  0  0  0
 43 44  4  0  0  0  0
M  END
$$$$
