complex
  PyMOL3.0          3D                             0

 12 12  0  0  0  0  0  0  0  0999 V2000
  -92.5410  -44.1330 -113.0840 C   0  0  0  0  0  0  0  0  0  0  0  0
  -91.6990  -43.2100 -112.4150 O   0  0  0  0  0  0  0  0  0  0  0  0
  -91.9280  -44.3970 -114.4650 C   0  0  0  0  0  0  0  0  0  0  0  0
  -90.5440  -44.7710 -114.3780 O   0  0  0  0  0  0  0  0  0  0  0  0
  -92.0160  -43.1120 -115.2550 C   0  0  0  0  0  0  0  0  0  0  0  0
  -91.5240  -43.3540 -116.5670 O   0  0  0  0  0  0  0  0  0  0  0  0
  -93.4430  -42.5660 -115.2280 C   0  0  0  0  0  0  0  0  0  0  0  0
  -93.4950  -41.3150 -115.9070 O   0  0  0  0  0  0  0  0  0  0  0  0
  -93.8990  -42.2870 -113.7970 C   0  0  0  0  0  0  0  0  0  0  0  0
  -93.8630  -43.5530 -113.1270 O   0  0  0  0  0  0  0  0  0  0  0  0
  -95.2830  -41.6040 -113.7000 C   0  0  0  0  0  0  0  0  0  0  0  0
  -95.5650  -41.1550 -112.3730 O   0  0  0  0  0  0  0  0  0  0  0  0
  1  2  1  0  0  0  0
  1  3  1  0  0  0  0
  1 10  1  0  0  0  0
  3  4  1  0  0  0  0
  3  5  1  0  0  0  0
  5  6  1  0  0  0  0
  5  7  1  0  0  0  0
  7  8  1  0  0  0  0
  7  9  1  0  0  0  0
  9 10  1  0  0  0  0
  9 11  1  0  0  0  0
 11 12  1  0  0  0  0
M  END
$$$$
