complex
  PyMOL3.0          3D                             0

 30 32  0  0  0  0  0  0  0  0999 V2000
   78.6570  118.5910   91.9260 P   0  0  0  0  0  0  0  0  0  0  0  0
   77.1160  119.9620   89.8270 P   0  0  0  0  0  0  0  0  0  0  0  0
   76.2100  117.7700   88.0110 P   0  0  0  0  0  0  0  0  0  0  0  0
   79.5130  118.7430   94.4040 C   0  0  0  0  0  0  0  0  0  0  0  0
   79.0590  119.4100   93.2110 O   0  0  0  0  0  0  0  0  0  0  0  0
   80.7020  119.4810   94.9540 C   0  0  0  0  0  0  0  0  0  0  0  0
   81.5580  119.9190   93.8810 O   0  0  0  0  0  0  0  0  0  0  0  0
   80.3630  120.7320   95.7680 C   0  0  0  0  0  0  0  0  0  0  0  0
   80.6840  120.5030   97.1400 O   0  0  0  0  0  0  0  0  0  0  0  0
   81.2480  121.8240   95.1670 C   0  0  0  0  0  0  0  0  0  0  0  0
   82.2560  121.0500   94.3400 C   0  0  0  0  0  0  0  0  0  0  0  0
   86.5090  122.6330   91.9580 N   0  0  0  0  0  0  0  0  0  0  0  0
   77.5210  117.6920   92.2060 O   0  5  0  0  0  0  0  0  0  0  0  0
   75.8190  120.2640   90.4630 O   0  5  0  0  0  0  0  0  0  0  0  0
   75.4620  118.7150   87.1370 O   0  0  0  0  0  0  0  0  0  0  0  0
   86.3160  121.9420   93.0830 C   0  0  0  0  0  0  0  0  0  0  0  0
   79.9090  117.9050   91.3830 O   0  0  0  0  0  0  0  0  0  0  0  0
   77.6330  121.0100   88.8400 O   0  0  0  0  0  0  0  0  0  0  0  0
   77.2080  116.8930   87.2610 O   0  5  0  0  0  0  0  0  0  0  0  0
   85.1680  121.5620   93.6420 N   0  0  0  0  0  0  0  0  0  0  0  0
   78.2630  119.7230   90.9020 O   0  0  0  0  0  0  0  0  0  0  0  0
   77.0950  118.5680   89.0680 O   0  0  0  0  0  0  0  0  0  0  0  0
   75.3100  116.8790   88.8590 O   0  0  0  0  0  0  0  0  0  0  0  0
   84.1220  121.9680   92.9200 C   0  0  0  0  0  0  0  0  0  0  0  0
   84.1600  122.6920   91.7420 C   0  0  0  0  0  0  0  0  0  0  0  0
   85.4320  123.0330   91.2480 C   0  0  0  0  0  0  0  0  0  0  0  0
   85.6330  123.7270   90.1240 N   0  0  0  0  0  0  0  0  0  0  0  0
   82.8770  122.9390   91.2760 N   0  0  0  0  0  0  0  0  0  0  0  0
   82.1090  122.3690   92.1720 C   0  0  0  0  0  0  0  0  0  0  0  0
   82.7920  121.7610   93.1910 N   0  0  0  0  0  0  0  0  0  0  0  0
  1  5  1  0  0  0  0
  1 13  1  0  0  0  0
  1 17  2  0  0  0  0
  1 21  1  0  0  0  0
  2 14  1  0  0  0  0
  2 18  2  0  0  0  0
  2 21  1  0  0  0  0
  2 22  1  0  0  0  0
  3 15  1  0  0  0  0
  3 19  1  0  0  0  0
  3 22  1  0  0  0  0
  3 23  2  0  0  0  0
  4  5  1  0  0  0  0
  4  6  1  0  0  0  0
  6  7  1  0  0  0  0
  6  8  1  0  0  0  0
  7 11  1  0  0  0  0
  8  9  1  0  0  0  0
  8 10  1  0  0  0  0
 10 11  1  0  0  0  0
 11 30  1  0  0  0  0
 12 16  4  0  0  0  0
 12 26  4  0  0  0  0
 16 20  4  0  0  0  0
 20 24  4  0  0  0  0
 24 25  4  0  0  0  0
 24 30  4  0  0  0  0
 25 26  4  0  0  0  0
 25 28  4  0  0  0  0
 26 27  1  0  0  0  0
 28 29  4  0  0  0  0
 29 30  4  0  0  0  0
M  END
$$$$
