complex
  PyMOL3.0          3D                             0

  5  4  0  0  0  0  0  0  0  0999 V2000
  -36.4530   60.2600   26.6130 O   0  0  0  0  0  0  0  0  0  0  0  0
  -38.3160   60.2440   25.1830 O   0  0  0  0  0  0  0  0  0  0  0  0
  -38.1370   61.8980   26.8550 O   0  5  0  0  0  0  0  0  0  0  0  0
  -38.5730   59.6730   27.4630 O   0  0  0  0  0  0  0  0  0  0  0  0
  -37.8700   60.5180   26.5280 S   0  0  0  0  0  0  0  0  0  0  0  0
  1  5  1  0  0  0  0
  2  5  1  0  0  0  0
  3  5  1  0  0  0  0
  4  5  2  0  0  0  0
M  END
$$$$
