complex
  PyMOL3.0          3D                             0

  9  8  0  0  0  0  0  0  0  0999 V2000
  -45.3520   -9.6810   30.7270 P   0  0  0  0  0  0  0  0  0  0  0  0
  -48.2580   -9.6370   30.0920 P   0  0  0  0  0  0  0  0  0  0  0  0
  -45.3820   -8.1690   30.4780 O   0  0  0  0  0  0  0  0  0  0  0  0
  -48.9960  -10.6850   29.2600 O   0  0  0  0  0  0  0  0  0  0  0  0
  -44.6050   -9.9990   32.0330 O   0  5  0  0  0  0  0  0  0  0  0  0
  -47.8040   -8.4680   29.2250 O   0  5  0  0  0  0  0  0  0  0  0  0
  -44.6820  -10.3560   29.5250 O   0  5  0  0  0  0  0  0  0  0  0  0
  -49.2330   -9.1290   31.1450 O   0  0  0  0  0  0  0  0  0  0  0  0
  -46.9060  -10.2780   30.8330 O   0  0  0  0  0  0  0  0  0  0  0  0
  1  3  1  0  0  0  0
  1  5  1  0  0  0  0
  1  7  2  0  0  0  0
  1  9  1  0  0  0  0
  2  4  1  0  0  0  0
  2  6  1  0  0  0  0
  2  8  2  0  0  0  0
  2  9  1  0  0  0  0
M  END
$$$$
