complex
  PyMOL3.0          3D                             0

  4  3  0  0  0  0  0  0  0  0999 V2000
   37.5210  -12.7120   -8.2930 C   0  0  0  0  0  0  0  0  0  0  0  0
   38.9290  -12.5570   -8.1160 O   0  0  0  0  0  0  0  0  0  0  0  0
   37.0720  -14.0340   -7.7030 C   0  0  0  0  0  0  0  0  0  0  0  0
   35.8320  -13.8130   -7.0410 O   0  0  0  0  0  0  0  0  0  0  0  0
  1  2  1  0  0  0  0
  1  3  1  0  0  0  0
  3  4  1  0  0  0  0
M  END
$$$$
