complex
  PyMOL3.0          3D                             0

 13 12  0  0  0  0  0  0  0  0999 V2000
   63.2150   46.7920   52.7270 C   0  0  0  0  0  0  0  0  0  0  0  0
   62.2760   46.3310   53.6890 O   0  0  0  0  0  0  0  0  0  0  0  0
   64.5540   46.1300   52.8820 C   0  0  0  0  0  0  0  0  0  0  0  0
   65.3800   46.9030   53.7450 O   0  0  0  0  0  0  0  0  0  0  0  0
   65.8740   48.0920   53.1450 C   0  0  0  0  0  0  0  0  0  0  0  0
   65.3510   49.9460   54.5640 O   0  0  0  0  0  0  0  0  0  0  0  0
   66.3740   49.0270   54.2000 C   0  0  0  0  0  0  0  0  0  0  0  0
   63.8040   51.0150   57.2630 O   0  0  0  0  0  0  0  0  0  0  0  0
   65.6600   50.4270   55.8650 C   0  0  0  0  0  0  0  0  0  0  0  0
   60.6130   49.5990   56.6770 O   0  0  0  0  0  0  0  0  0  0  0  0
   64.6890   51.4930   56.2560 C   0  0  0  0  0  0  0  0  0  0  0  0
   62.4940   51.0730   56.7150 C   0  0  0  0  0  0  0  0  0  0  0  0
   61.5610   50.2280   57.5270 C   0  0  0  0  0  0  0  0  0  0  0  0
  1  2  1  0  0  0  0
  1  3  1  0  0  0  0
  3  4  1  0  0  0  0
  4  5  1  0  0  0  0
  5  7  1  0  0  0  0
  6  7  1  0  0  0  0
  6  9  1  0  0  0  0
  8 11  1  0  0  0  0
  8 12  1  0  0  0  0
  9 11  1  0  0  0  0
 10 13  1  0  0  0  0
 12 13  1  0  0  0  0
M  END
$$$$
