complex
  PyMOL3.0          3D                             0

  4  3  0  0  0  0  0  0  0  0999 V2000
   26.1890   58.6430   -6.3740 C   0  0  0  0  0  0  0  0  0  0  0  0
   27.0010   58.7680   -7.5080 O   0  0  0  0  0  0  0  0  0  0  0  0
   24.7340   58.8540   -6.5000 C   0  0  0  0  0  0  0  0  0  0  0  0
   23.9910   57.6630   -6.3280 O   0  0  0  0  0  0  0  0  0  0  0  0
  1  2  1  0  0  0  0
  1  3  1  0  0  0  0
  3  4  1  0  0  0  0
M  END
$$$$
