complex
  PyMOL3.0          3D                             0

 14 14  0  0  0  0  0  0  0  0999 V2000
  -27.6710   48.2180  133.1150 C   0  0  0  0  0  0  0  0  0  0  0  0
  -28.4410   47.0360  132.5370 C   0  0  0  0  0  0  0  0  0  0  0  0
  -27.9340   46.6620  131.2270 N   0  0  0  0  0  0  0  0  0  0  0  0
  -29.9270   47.3650  132.4650 C   0  0  0  0  0  0  0  0  0  0  0  0
  -30.6470   46.2250  132.0090 O   0  0  0  0  0  0  0  0  0  0  0  0
  -30.4380   47.7950  133.8330 C   0  0  0  0  0  0  0  0  0  0  0  0
  -31.7890   48.2310  133.7340 O   0  0  0  0  0  0  0  0  0  0  0  0
  -29.5820   48.9310  134.3890 C   0  0  0  0  0  0  0  0  0  0  0  0
  -28.1970   48.5490  134.4050 O   0  0  0  0  0  0  0  0  0  0  0  0
  -29.9480   49.3020  135.8080 C   0  0  0  0  0  0  0  0  0  0  0  0
  -29.0930   50.3150  136.3200 O   0  0  0  0  0  0  0  0  0  0  0  0
  -27.2270   45.5490  131.0100 C   0  0  0  0  0  0  0  0  0  0  0  0
  -26.9530   44.7660  131.9140 O   0  0  0  0  0  0  0  0  0  0  0  0
  -26.7850   45.3180  129.5990 C   0  0  0  0  0  0  0  0  0  0  0  0
  1  2  1  0  0  0  0
  1  9  1  0  0  0  0
  2  3  1  0  0  0  0
  2  4  1  0  0  0  0
  3 12  1  0  0  0  0
  4  5  1  0  0  0  0
  4  6  1  0  0  0  0
  6  7  1  0  0  0  0
  6  8  1  0  0  0  0
  8  9  1  0  0  0  0
  8 10  1  0  0  0  0
 10 11  1  0  0  0  0
 12 13  2  0  0  0  0
 12 14  1  0  0  0  0
M  END
$$$$
