complex
  PyMOL3.0          3D                             0

  5  4  0  0  0  0  0  0  0  0999 V2000
   54.0830   35.0790   57.2310 O   0  0  0  0  0  0  0  0  0  0  0  0
   52.9270   32.9950   57.5210 O   0  0  0  0  0  0  0  0  0  0  0  0
   54.9930   33.4120   58.6630 O   0  5  0  0  0  0  0  0  0  0  0  0
   52.9790   34.5490   59.3050 O   0  0  0  0  0  0  0  0  0  0  0  0
   53.7460   34.0120   58.1790 S   0  0  0  0  0  0  0  0  0  0  0  0
  1  5  1  0  0  0  0
  2  5  1  0  0  0  0
  3  5  1  0  0  0  0
  4  5  2  0  0  0  0
M  END
$$$$
