complex
  PyMOL3.0          3D                             0

 26 29  0  0  0  0  0  0  0  0999 V2000
    0.3260  -73.6170    0.4300 C   0  0  0  0  0  0  0  0  0  0  0  0
   -0.0240  -73.1070    1.8230 C   0  0  0  0  0  0  0  0  0  0  0  0
    0.3170  -73.8280    2.9490 C   0  0  0  0  0  0  0  0  0  0  0  0
   -0.0170  -73.3310    4.1980 C   0  0  0  0  0  0  0  0  0  0  0  0
   -0.6860  -72.1320    4.3360 C   0  0  0  0  0  0  0  0  0  0  0  0
   -1.0240  -71.4210    3.2020 C   0  0  0  0  0  0  0  0  0  0  0  0
   -0.6900  -71.9090    1.9490 C   0  0  0  0  0  0  0  0  0  0  0  0
    0.3390  -74.0990    5.4700 C   0  0  0  0  0  0  0  0  0  0  0  0
   -0.9350  -74.1680    6.3020 C   0  0  0  0  0  0  0  0  0  0  0  0
   -1.0930  -72.9060    7.1420 C   0  0  0  0  0  0  0  0  0  0  0  0
   -0.0060  -72.8220    8.2090 C   0  0  0  0  0  0  0  0  0  0  0  0
    1.2750  -73.4660    7.7090 C   0  0  0  0  0  0  0  0  0  0  0  0
    1.4020  -73.2930    6.1950 C   0  0  0  0  0  0  0  0  0  0  0  0
   -0.7150  -73.3210    9.1540 N   0  0  0  0  0  0  0  0  0  0  0  0
   -1.1320  -72.2830    9.9280 C   0  0  0  0  0  0  0  0  0  0  0  0
    0.0800  -71.5860   10.5320 C   0  0  0  0  0  0  0  0  0  0  0  0
    0.7070  -72.5170   11.4300 N   0  0  0  0  0  0  0  0  0  0  0  0
    1.1830  -73.5640   10.5600 C   0  0  0  0  0  0  0  0  0  0  0  0
    0.0000  -74.2350    9.8820 C   0  0  0  0  0  0  0  0  0  0  0  0
   -0.1240  -72.9210   12.5750 C   0  0  0  0  0  0  0  0  0  0  0  0
   -0.6540  -71.9610   13.4400 C   0  0  0  0  0  0  0  0  0  0  0  0
   -1.4430  -72.3930   14.5020 C   0  0  0  0  0  0  0  0  0  0  0  0
   -1.6680  -73.7520   14.6500 C   0  0  0  0  0  0  0  0  0  0  0  0
   -1.1480  -74.6310   13.8040 N   0  0  0  0  0  0  0  0  0  0  0  0
   -0.3970  -74.2520   12.7830 C   0  0  0  0  0  0  0  0  0  0  0  0
   -2.2190  -71.1240   15.7710 Br  0  0  0  0  0  0  0  0  0  0  0  0
  1  2  1  0  0  0  0
  2  3  4  0  0  0  0
  2  7  4  0  0  0  0
  3  4  4  0  0  0  0
  4  5  4  0  0  0  0
  4  8  1  0  0  0  0
  5  6  4  0  0  0  0
  6  7  4  0  0  0  0
  8  9  1  0  0  0  0
  8 13  1  0  0  0  0
  9 10  1  0  0  0  0
 10 11  1  0  0  0  0
 11 12  1  0  0  0  0
 11 14  1  0  0  0  0
 12 13  1  0  0  0  0
 14 15  1  0  0  0  0
 14 19  1  0  0  0  0
 15 16  1  0  0  0  0
 16 17  1  0  0  0  0
 17 18  1  0  0  0  0
 17 20  1  0  0  0  0
 18 19  1  0  0  0  0
 20 21  4  0  0  0  0
 20 25  4  0  0  0  0
 21 22  4  0  0  0  0
 22 23  4  0  0  0  0
 22 26  1  0  0  0  0
 23 24  4  0  0  0  0
 24 25  4  0  0  0  0
M  END
$$$$
