complex
  PyMOL3.0          3D                             0

 45 51  0  0  0  0  0  0  0  0999 V2000
    3.6810    3.9340  -14.1640 C   0  0  0  0  0  0  0  0  0  0  0  0
    3.6330    2.6360  -13.8790 N   0  0  0  0  0  0  0  0  0  0  0  0
    5.4050    0.4560  -19.2870 O   0  0  0  0  0  0  0  0  0  0  0  0
    4.0620    4.3990  -15.4280 C   0  0  0  0  0  0  0  0  0  0  0  0
    6.2240   -2.2600  -20.7240 N   0  0  0  0  0  0  0  0  0  0  0  0
    3.4290    1.2530  -25.7810 O   0  0  0  0  0  0  0  0  0  0  0  0
    4.4120    3.4440  -16.4330 C   0  0  0  0  0  0  0  0  0  0  0  0
    6.0310   -2.8490  -21.8880 N   0  0  0  0  0  0  0  0  0  0  0  0
    1.6840    2.5450  -25.6140 O   0  0  0  0  0  0  0  0  0  0  0  0
    4.3560    2.0960  -16.0900 C   0  0  0  0  0  0  0  0  0  0  0  0
    2.7750    0.0460  -23.3180 N   0  0  0  0  0  0  0  0  0  0  0  0
   -2.2630    2.1660  -21.7560 O   0  0  0  0  0  0  0  0  0  0  0  0
    3.9560    1.7350  -14.7860 C   0  0  0  0  0  0  0  0  0  0  0  0
    4.8130    3.8090  -17.7320 C   0  0  0  0  0  0  0  0  0  0  0  0
    5.1440    2.8160  -18.6700 C   0  0  0  0  0  0  0  0  0  0  0  0
    5.0720    1.4560  -18.3200 C   0  0  0  0  0  0  0  0  0  0  0  0
    4.6870    1.0890  -17.0320 C   0  0  0  0  0  0  0  0  0  0  0  0
    4.9520   -0.8680  -18.9770 C   0  0  0  0  0  0  0  0  0  0  0  0
    5.1190   -1.6610  -20.2800 C   0  0  0  0  0  0  0  0  0  0  0  0
    4.7570   -2.6680  -22.2930 C   0  0  0  0  0  0  0  0  0  0  0  0
    4.1090   -1.8870  -21.2870 C   0  0  0  0  0  0  0  0  0  0  0  0
    7.0260   -3.5810  -22.6320 C   0  0  0  0  0  0  0  0  0  0  0  0
    2.6030   -1.4170  -21.2910 C   0  0  0  0  0  0  0  0  0  0  0  0
    2.1310   -0.5320  -22.2880 C   0  0  0  0  0  0  0  0  0  0  0  0
    0.7930   -0.1320  -22.3090 C   0  0  0  0  0  0  0  0  0  0  0  0
   -0.0910   -0.5980  -21.3360 C   0  0  0  0  0  0  0  0  0  0  0  0
    0.3900   -1.4690  -20.3510 C   0  0  0  0  0  0  0  0  0  0  0  0
    1.7270   -1.8880  -20.3330 C   0  0  0  0  0  0  0  0  0  0  0  0
    1.9310    0.8110  -24.0030 C   0  0  0  0  0  0  0  0  0  0  0  0
    0.6490    0.7650  -23.4370 C   0  0  0  0  0  0  0  0  0  0  0  0
    2.3650    1.5780  -25.2020 C   0  0  0  0  0  0  0  0  0  0  0  0
   -0.6490    1.4820  -23.9090 C   0  0  0  0  0  0  0  0  0  0  0  0
   -0.7680    2.8880  -23.4230 C   0  0  0  0  0  0  0  0  0  0  0  0
   -1.0630    2.9330  -21.9280 C   0  0  0  0  0  0  0  0  0  0  0  0
   -2.8410    2.1970  -20.4720 C   0  0  0  0  0  0  0  0  0  0  0  0
   -4.1150    1.5930  -20.2900 C   0  0  0  0  0  0  0  0  0  0  0  0
   -4.7160    1.6010  -19.0560 C   0  0  0  0  0  0  0  0  0  0  0  0
   -4.0570    2.2100  -17.9760 C   0  0  0  0  0  0  0  0  0  0  0  0
   -2.7890    2.7960  -18.1580 C   0  0  0  0  0  0  0  0  0  0  0  0
   -2.1720    2.7860  -19.4120 C   0  0  0  0  0  0  0  0  0  0  0  0
   -4.7630    0.9840  -21.4020 C   0  0  0  0  0  0  0  0  0  0  0  0
   -6.0130    0.4080  -21.2120 C   0  0  0  0  0  0  0  0  0  0  0  0
   -6.6300    0.4150  -19.9460 C   0  0  0  0  0  0  0  0  0  0  0  0
   -5.9840    1.0120  -18.8690 C   0  0  0  0  0  0  0  0  0  0  0  0
    4.1190   -3.2140  -23.6220 C   0  0  0  0  0  0  0  0  0  0  0  0
  1  2  4  0  0  0  0
  1  4  4  0  0  0  0
  2 13  4  0  0  0  0
  3 16  1  0  0  0  0
  3 18  1  0  0  0  0
  4  7  4  0  0  0  0
  5  8  4  0  0  0  0
  5 19  4  0  0  0  0
  6 31  4  0  0  0  0
  7 10  4  0  0  0  0
  7 14  4  0  0  0  0
  8 20  4  0  0  0  0
  8 22  1  0  0  0  0
  9 31  4  0  0  0  0
 10 13  4  0  0  0  0
 10 17  4  0  0  0  0
 11 24  4  0  0  0  0
 11 29  4  0  0  0  0
 12 34  1  0  0  0  0
 12 35  1  0  0  0  0
 14 15  4  0  0  0  0
 15 16  4  0  0  0  0
 16 17  4  0  0  0  0
 18 19  1  0  0  0  0
 19 21  4  0  0  0  0
 20 21  4  0  0  0  0
 20 45  1  0  0  0  0
 21 23  1  0  0  0  0
 23 24  4  0  0  0  0
 23 28  4  0  0  0  0
 24 25  4  0  0  0  0
 25 26  4  0  0  0  0
 25 30  4  0  0  0  0
 26 27  4  0  0  0  0
 27 28  4  0  0  0  0
 29 30  4  0  0  0  0
 29 31  1  0  0  0  0
 30 32  1  0  0  0  0
 32 33  1  0  0  0  0
 33 34  1  0  0  0  0
 35 36  4  0  0  0  0
 35 40  4  0  0  0  0
 36 37  4  0  0  0  0
 36 41  4  0  0  0  0
 37 38  4  0  0  0  0
 37 44  4  0  0  0  0
 38 39  4  0  0  0  0
 39 40  4  0  0  0  0
 41 42  4  0  0  0  0
 42 43  4  0  0  0  0
 43 44  4  0  0  0  0
M  END
$$$$
