complex
  PyMOL3.0          3D                             0

  7  6  0  0  0  0  0  0  0  0999 V2000
   78.3280   31.6620   70.3900 C   0  0  0  0  0  0  0  0  0  0  0  0
   77.9380   32.3700   71.5580 O   0  0  0  0  0  0  0  0  0  0  0  0
   77.6110   32.1630   69.1690 C   0  0  0  0  0  0  0  0  0  0  0  0
   77.3590   31.0760   68.2870 O   0  0  0  0  0  0  0  0  0  0  0  0
   77.3710   31.4510   66.9150 C   0  0  0  0  0  0  0  0  0  0  0  0
   75.9740   31.4290   66.3720 C   0  0  0  0  0  0  0  0  0  0  0  0
   75.8780   30.6180   65.2120 O   0  0  0  0  0  0  0  0  0  0  0  0
  1  2  1  0  0  0  0
  1  3  1  0  0  0  0
  3  4  1  0  0  0  0
  4  5  1  0  0  0  0
  5  6  1  0  0  0  0
  6  7  1  0  0  0  0
M  END
$$$$
