complex
  PyMOL3.0          3D                             0

  4  3  0  0  0  0  0  0  0  0999 V2000
   -5.7030   26.2280  -10.6540 C   0  0  0  0  0  0  0  0  0  0  0  0
   -6.5330   25.7790   -9.6110 O   0  0  0  0  0  0  0  0  0  0  0  0
   -4.3330   25.6640  -10.6320 C   0  0  0  0  0  0  0  0  0  0  0  0
   -3.5410   26.1830   -9.5870 O   0  0  0  0  0  0  0  0  0  0  0  0
  1  2  1  0  0  0  0
  1  3  1  0  0  0  0
  3  4  1  0  0  0  0
M  END
$$$$
