complex
  PyMOL3.0          3D                             0

 48 52  0  0  0  0  0  0  0  0999 V2000
  160.6810  145.4620  146.4530 P   0  0  0  0  0  0  0  0  0  0  0  0
  155.0720  144.8760  150.2610 P   0  0  0  0  0  0  0  0  0  0  0  0
  152.6930  145.5320  148.9450 P   0  0  0  0  0  0  0  0  0  0  0  0
  159.3120  146.8840  149.1080 C   0  0  0  0  0  0  0  0  0  0  0  0
  147.1950  146.6360  149.3680 C   0  0  0  0  0  0  0  0  0  0  0  0
  160.3970  145.8840  154.1450 N   0  0  0  0  0  0  0  0  0  0  0  0
  146.3560  146.9170  148.2020 N   0  0  0  0  0  0  0  0  0  0  0  0
  155.0080  144.1210  151.5670 O   0  5  0  0  0  0  0  0  0  0  0  0
  153.4640  145.3890  147.6550 O   0  5  0  0  0  0  0  0  0  0  0  0
  160.7170  145.3600  144.9470 O   0  0  0  0  0  0  0  0  0  0  0  0
  160.0000  147.0250  153.5520 C   0  0  0  0  0  0  0  0  0  0  0  0
  158.6280  146.2030  147.9330 C   0  0  0  0  0  0  0  0  0  0  0  0
  147.6140  145.1730  149.3620 C   0  0  0  0  0  0  0  0  0  0  0  0
  145.0780  146.5170  148.2000 C   0  0  0  0  0  0  0  0  0  0  0  0
  155.2540  144.1230  148.9650 O   0  0  0  0  0  0  0  0  0  0  0  0
  159.4010  146.3920  146.7480 O   0  0  0  0  0  0  0  0  0  0  0  0
  147.0280  144.4990  150.4840 O   0  0  0  0  0  0  0  0  0  0  0  0
  151.7410  144.4440  149.3790 O   0  0  0  0  0  0  0  0  0  0  0  0
  160.3600  144.1660  147.1570 O   0  5  0  0  0  0  0  0  0  0  0  0
  157.2380  146.8180  147.8380 C   0  0  0  0  0  0  0  0  0  0  0  0
  149.1360  145.1700  149.4030 C   0  0  0  0  0  0  0  0  0  0  0  0
  144.2560  146.7690  147.1070 C   0  0  0  0  0  0  0  0  0  0  0  0
  159.7560  147.1360  152.2340 N   0  0  0  0  0  0  0  0  0  0  0  0
  153.7470  145.7820  150.1370 O   0  0  0  0  0  0  0  0  0  0  0  0
  157.0350  147.5420  146.6180 O   0  0  0  0  0  0  0  0  0  0  0  0
  149.6610  144.4640  150.5360 O   0  0  0  0  0  0  0  0  0  0  0  0
  161.8350  146.2290  147.0530 O   0  0  0  0  0  0  0  0  0  0  0  0
  159.9010  146.0720  151.4080 C   0  0  0  0  0  0  0  0  0  0  0  0
  157.1160  147.7670  149.0200 C   0  0  0  0  0  0  0  0  0  0  0  0
  149.5590  146.6300  149.4650 C   0  0  0  0  0  0  0  0  0  0  0  0
  144.7680  147.4430  146.0080 C   0  0  0  0  0  0  0  0  0  0  0  0
  158.3680  147.7730  149.7110 O   0  0  0  0  0  0  0  0  0  0  0  0
  148.3830  147.4310  149.3190 O   0  0  0  0  0  0  0  0  0  0  0  0
  160.3330  144.7880  151.9810 C   0  0  0  0  0  0  0  0  0  0  0  0
  156.0090  147.3240  149.9690 C   0  0  0  0  0  0  0  0  0  0  0  0
  150.5570  146.9660  148.3640 C   0  0  0  0  0  0  0  0  0  0  0  0
  146.0960  147.8480  146.0340 C   0  0  0  0  0  0  0  0  0  0  0  0
  156.2420  145.9770  150.3730 O   0  0  0  0  0  0  0  0  0  0  0  0
  151.8800  146.9210  148.8940 O   0  0  0  0  0  0  0  0  0  0  0  0
  160.5830  144.7450  153.4410 C   0  0  0  0  0  0  0  0  0  0  0  0
  146.8730  147.5690  147.1530 C   0  0  0  0  0  0  0  0  0  0  0  0
  160.9830  143.6030  154.0500 N   0  0  0  0  0  0  0  0  0  0  0  0
  142.8270  146.3140  147.1190 C   0  0  0  0  0  0  0  0  0  0  0  0
  160.3970  143.9140  150.9590 N   0  0  0  0  0  0  0  0  0  0  0  0
  142.0390  146.6400  146.0960 N   0  0  0  0  0  0  0  0  0  0  0  0
  142.4170  145.6570  148.0620 O   0  0  0  0  0  0  0  0  0  0  0  0
  160.0370  144.5800  149.8310 C   0  0  0  0  0  0  0  0  0  0  0  0
  159.7420  145.8660  150.0990 N   0  0  0  0  0  0  0  0  0  0  0  0
  1 10  1  0  0  0  0
  1 16  1  0  0  0  0
  1 19  1  0  0  0  0
  1 27  2  0  0  0  0
  2  8  1  0  0  0  0
  2 15  2  0  0  0  0
  2 24  1  0  0  0  0
  2 38  1  0  0  0  0
  3  9  1  0  0  0  0
  3 18  2  0  0  0  0
  3 24  1  0  0  0  0
  3 39  1  0  0  0  0
  4 12  1  0  0  0  0
  4 32  1  0  0  0  0
  4 48  1  0  0  0  0
  5  7  1  0  0  0  0
  5 13  1  0  0  0  0
  5 33  1  0  0  0  0
  6 11  4  0  0  0  0
  6 40  4  0  0  0  0
  7 14  4  0  0  0  0
  7 41  4  0  0  0  0
 11 23  4  0  0  0  0
 12 16  1  0  0  0  0
 12 20  1  0  0  0  0
 13 17  1  0  0  0  0
 13 21  1  0  0  0  0
 14 22  4  0  0  0  0
 20 25  1  0  0  0  0
 20 29  1  0  0  0  0
 21 26  1  0  0  0  0
 21 30  1  0  0  0  0
 22 31  4  0  0  0  0
 22 43  1  0  0  0  0
 23 28  4  0  0  0  0
 28 34  4  0  0  0  0
 28 48  4  0  0  0  0
 29 32  1  0  0  0  0
 29 35  1  0  0  0  0
 30 33  1  0  0  0  0
 30 36  1  0  0  0  0
 31 37  4  0  0  0  0
 34 40  4  0  0  0  0
 34 44  4  0  0  0  0
 35 38  1  0  0  0  0
 36 39  1  0  0  0  0
 37 41  4  0  0  0  0
 40 42  1  0  0  0  0
 43 45  1  0  0  0  0
 43 46  2  0  0  0  0
 44 47  4  0  0  0  0
 47 48  4  0  0  0  0
M  END
$$$$
