complex
  PyMOL3.0          3D                             0

  5  4  0  0  0  0  0  0  0  0999 V2000
   -0.2460   10.1000   43.9140 O   0  0  0  0  0  0  0  0  0  0  0  0
   -1.0290    8.0720   45.0620 O   0  0  0  0  0  0  0  0  0  0  0  0
    1.0120    9.1110   45.6510 O   0  5  0  0  0  0  0  0  0  0  0  0
   -1.1000   10.1980   46.0990 O   0  0  0  0  0  0  0  0  0  0  0  0
   -0.3430    9.3570   45.1670 S   0  0  0  0  0  0  0  0  0  0  0  0
  1  5  1  0  0  0  0
  2  5  1  0  0  0  0
  3  5  1  0  0  0  0
  4  5  2  0  0  0  0
M  END
$$$$
