complex
  PyMOL3.0          3D                             0

 11 11  0  0  0  0  0  0  0  0999 V2000
  196.8740  242.0670  272.4140 C   0  0  0  0  0  0  0  0  0  0  0  0
  197.0330  243.5090  271.8190 C   0  0  0  0  0  0  0  0  0  0  0  0
  197.7230  243.4870  270.5690 O   0  0  0  0  0  0  0  0  0  0  0  0
  195.6530  244.1480  271.5260 C   0  0  0  0  0  0  0  0  0  0  0  0
  195.7720  245.3360  270.7520 O   0  0  0  0  0  0  0  0  0  0  0  0
  194.6900  243.1590  270.8310 C   0  0  0  0  0  0  0  0  0  0  0  0
  193.4370  243.7790  270.5950 O   0  0  0  0  0  0  0  0  0  0  0  0
  194.4930  241.9000  271.7250 C   0  0  0  0  0  0  0  0  0  0  0  0
  195.5070  241.8220  272.7930 O   0  0  0  0  0  0  0  0  0  0  0  0
  194.5250  240.5940  270.9480 C   0  0  0  0  0  0  0  0  0  0  0  0
  194.5000  239.5190  271.8820 O   0  0  0  0  0  0  0  0  0  0  0  0
  1  2  1  0  0  0  0
  1  9  1  0  0  0  0
  2  3  1  0  0  0  0
  2  4  1  0  0  0  0
  4  5  1  0  0  0  0
  4  6  1  0  0  0  0
  6  7  1  0  0  0  0
  6  8  1  0  0  0  0
  8  9  1  0  0  0  0
  8 10  1  0  0  0  0
 10 11  1  0  0  0  0
M  END
$$$$
