complex
  PyMOL3.0          3D                             0

 27 29  0  0  0  0  0  0  0  0999 V2000
  142.8050  191.8430  206.7900 P   0  0  0  0  0  0  0  0  0  0  0  0
  141.0540  189.7570  207.5690 P   0  0  0  0  0  0  0  0  0  0  0  0
  143.9640  191.0970  209.0300 C   0  0  0  0  0  0  0  0  0  0  0  0
  143.1890  192.0730  208.3380 O   0  0  0  0  0  0  0  0  0  0  0  0
  144.7510  191.7260  210.1760 C   0  0  0  0  0  0  0  0  0  0  0  0
  145.1820  193.0520  209.8610 O   0  0  0  0  0  0  0  0  0  0  0  0
  143.9390  191.8380  211.4560 C   0  0  0  0  0  0  0  0  0  0  0  0
  144.3040  190.7890  212.3550 O   0  0  0  0  0  0  0  0  0  0  0  0
  144.3120  193.1790  212.0550 C   0  0  0  0  0  0  0  0  0  0  0  0
  144.9410  192.9970  213.3260 O   0  0  0  0  0  0  0  0  0  0  0  0
  145.2940  193.7990  211.0760 C   0  0  0  0  0  0  0  0  0  0  0  0
  146.4230  198.7390  212.4150 N   0  0  0  0  0  0  0  0  0  0  0  0
  142.6240  193.2010  206.1620 O   0  5  0  0  0  0  0  0  0  0  0  0
  139.7620  189.2790  206.9530 O   0  0  0  0  0  0  0  0  0  0  0  0
  146.9720  197.5810  212.8230 C   0  0  0  0  0  0  0  0  0  0  0  0
  143.8190  190.8960  206.1940 O   0  0  0  0  0  0  0  0  0  0  0  0
  142.2430  188.8830  207.2600 O   0  5  0  0  0  0  0  0  0  0  0  0
  146.5750  196.3730  212.3880 N   0  0  0  0  0  0  0  0  0  0  0  0
  141.3570  191.1360  206.7970 O   0  0  0  0  0  0  0  0  0  0  0  0
  140.9420  190.1620  209.0180 O   0  0  0  0  0  0  0  0  0  0  0  0
  145.5700  196.2540  211.4890 C   0  0  0  0  0  0  0  0  0  0  0  0
  144.9190  197.4750  210.9960 C   0  0  0  0  0  0  0  0  0  0  0  0
  145.4120  198.7680  211.5210 C   0  0  0  0  0  0  0  0  0  0  0  0
  144.8670  199.9400  211.1180 N   0  0  0  0  0  0  0  0  0  0  0  0
  143.9720  197.0800  210.1270 N   0  0  0  0  0  0  0  0  0  0  0  0
  144.0110  195.7240  210.0690 C   0  0  0  0  0  0  0  0  0  0  0  0
  144.9660  195.2320  210.8790 N   0  0  0  0  0  0  0  0  0  0  0  0
  1  4  1  0  0  0  0
  1 13  1  0  0  0  0
  1 16  2  0  0  0  0
  1 19  1  0  0  0  0
  2 14  1  0  0  0  0
  2 17  1  0  0  0  0
  2 19  1  0  0  0  0
  2 20  2  0  0  0  0
  3  4  1  0  0  0  0
  3  5  1  0  0  0  0
  5  6  1  0  0  0  0
  5  7  1  0  0  0  0
  6 11  1  0  0  0  0
  7  8  1  0  0  0  0
  7  9  1  0  0  0  0
  9 10  1  0  0  0  0
  9 11  1  0  0  0  0
 11 27  1  0  0  0  0
 12 15  4  0  0  0  0
 12 23  4  0  0  0  0
 15 18  4  0  0  0  0
 18 21  4  0  0  0  0
 21 22  4  0  0  0  0
 21 27  4  0  0  0  0
 22 23  4  0  0  0  0
 22 25  4  0  0  0  0
 23 24  1  0  0  0  0
 25 26  4  0  0  0  0
 26 27  4  0  0  0  0
M  END
$$$$
