complex
  PyMOL3.0          3D                             0

  5  4  0  0  0  0  0  0  0  0999 V2000
  -15.8840  -34.3530   56.6270 O   0  0  0  0  0  0  0  0  0  0  0  0
  -18.1450  -34.4520   55.8580 O   0  0  0  0  0  0  0  0  0  0  0  0
  -17.6250  -35.2690   58.0100 O   0  5  0  0  0  0  0  0  0  0  0  0
  -17.4960  -32.9000   57.5710 O   0  0  0  0  0  0  0  0  0  0  0  0
  -17.2890  -34.2440   57.0250 S   0  0  0  0  0  0  0  0  0  0  0  0
  1  5  1  0  0  0  0
  2  5  1  0  0  0  0
  3  5  1  0  0  0  0
  4  5  2  0  0  0  0
M  END
$$$$
