complex
  PyMOL3.0          3D                             0

 12 12  0  0  0  0  0  0  0  0999 V2000
  -83.6160  -57.7530    2.6700 C   0  0  0  0  0  0  0  0  0  0  0  0
  -83.4420  -57.4910    4.0620 O   0  0  0  0  0  0  0  0  0  0  0  0
  -82.2240  -58.2350    2.2310 C   0  0  0  0  0  0  0  0  0  0  0  0
  -81.8450  -59.4450    2.8970 O   0  0  0  0  0  0  0  0  0  0  0  0
  -81.2130  -57.1280    2.5170 C   0  0  0  0  0  0  0  0  0  0  0  0
  -79.8950  -57.5710    2.1410 O   0  0  0  0  0  0  0  0  0  0  0  0
  -81.7200  -55.8770    1.7560 C   0  0  0  0  0  0  0  0  0  0  0  0
  -80.8310  -54.7780    2.0020 O   0  0  0  0  0  0  0  0  0  0  0  0
  -83.2090  -55.4600    2.0440 C   0  0  0  0  0  0  0  0  0  0  0  0
  -84.1260  -56.5730    1.9710 O   0  0  0  0  0  0  0  0  0  0  0  0
  -83.6980  -54.3180    1.1360 C   0  0  0  0  0  0  0  0  0  0  0  0
  -83.6520  -54.6910   -0.2410 O   0  0  0  0  0  0  0  0  0  0  0  0
  1  2  1  0  0  0  0
  1  3  1  0  0  0  0
  1 10  1  0  0  0  0
  3  4  1  0  0  0  0
  3  5  1  0  0  0  0
  5  6  1  0  0  0  0
  5  7  1  0  0  0  0
  7  8  1  0  0  0  0
  7  9  1  0  0  0  0
  9 10  1  0  0  0  0
  9 11  1  0  0  0  0
 11 12  1  0  0  0  0
M  END
$$$$
