complex
  PyMOL3.0          3D                             0

  4  3  0  0  0  0  0  0  0  0999 V2000
   22.7710   39.9990   25.9010 C   0  0  0  0  0  0  0  0  0  0  0  0
   23.1420   39.9560   27.2660 O   0  0  0  0  0  0  0  0  0  0  0  0
   22.0090   38.8080   25.4550 C   0  0  0  0  0  0  0  0  0  0  0  0
   21.4670   38.0480   26.5170 O   0  0  0  0  0  0  0  0  0  0  0  0
  1  2  1  0  0  0  0
  1  3  1  0  0  0  0
  3  4  1  0  0  0  0
M  END
$$$$
