complex
  PyMOL3.0          3D                             0

 54 57  0  0  0  0  0  0  0  0999 V2000
  -18.3790  -35.0850  -14.4360 N   0  0  0  0  0  0  0  0  0  0  0  0
  -18.1620  -36.5490  -14.4130 C   0  0  0  0  0  0  0  0  0  0  0  0
  -21.0420  -32.9060  -11.5620 C   0  0  0  0  0  0  0  0  0  0  0  0
  -20.6780  -33.7720  -12.5280 C   0  0  0  0  0  0  0  0  0  0  0  0
  -20.1620  -33.2910  -13.6970 C   0  0  0  0  0  0  0  0  0  0  0  0
  -20.0160  -31.9200  -13.8810 C   0  0  0  0  0  0  0  0  0  0  0  0
  -20.4130  -31.0450  -12.8890 C   0  0  0  0  0  0  0  0  0  0  0  0
  -20.9460  -31.5530  -11.7180 C   0  0  0  0  0  0  0  0  0  0  0  0
  -17.2090  -34.2680  -14.7250 C   0  0  0  0  0  0  0  0  0  0  0  0
  -16.4250  -34.7510  -15.9330 C   0  0  0  0  0  0  0  0  0  0  0  0
  -16.2140  -36.2000  -15.8940 C   0  0  0  0  0  0  0  0  0  0  0  0
  -16.3540  -36.8720  -11.0440 C   0  0  0  0  0  0  0  0  0  0  0  0
  -16.9300  -36.4570   -9.8370 C   0  0  0  0  0  0  0  0  0  0  0  0
  -18.8430  -35.7780   -8.6100 C   0  0  0  0  0  0  0  0  0  0  0  0
  -18.0860  -35.5630   -7.4670 C   0  0  0  0  0  0  0  0  0  0  0  0
  -16.7400  -35.8230   -7.5150 C   0  0  0  0  0  0  0  0  0  0  0  0
  -17.4690  -37.0320  -13.2460 C   0  0  0  0  0  0  0  0  0  0  0  0
  -17.3380  -38.2630  -13.0850 O   0  0  0  0  0  0  0  0  0  0  0  0
  -16.9980  -36.2350  -12.2800 N   0  0  0  0  0  0  0  0  0  0  0  0
  -18.2470  -36.2220   -9.7560 N   0  0  0  0  0  0  0  0  0  0  0  0
  -19.6310  -33.6580  -16.1600 O   0  0  0  0  0  0  0  0  0  0  0  0
  -20.7250  -35.5290  -14.9040 O   0  0  0  0  0  0  0  0  0  0  0  0
  -19.7500  -34.4520  -14.9330 S   0  0  0  0  0  0  0  0  0  0  0  0
  -17.5030  -36.9710  -15.6810 C   0  0  0  0  0  0  0  0  0  0  0  0
  -16.1490  -36.2410   -8.6860 C   0  0  0  0  0  0  0  0  0  0  0  0
  -16.9970  -34.7360  -12.2790 C   0  0  0  0  0  0  0  0  0  0  0  0
  -16.3160  -34.2230  -13.4400 C   0  0  0  0  0  0  0  0  0  0  0  0
  -15.8920  -32.7820  -13.2840 C   0  0  0  0  0  0  0  0  0  0  0  0
  -16.6700  -31.7640  -12.5770 C   0  0  0  0  0  0  0  0  0  0  0  0
  -21.7280  -33.5130  -10.0520 Cl  0  0  0  0  0  0  0  0  0  0  0  0
  -20.2740  -29.3370  -13.1130 Cl  0  0  0  0  0  0  0  0  0  0  0  0
  -19.1310  -37.0400  -14.3950 H   0  0  0  0  0  0  0  0  0  0  0  0
  -20.8020  -34.8320  -12.3790 H   0  0  0  0  0  0  0  0  0  0  0  0
  -19.6340  -31.5280  -14.8220 H   0  0  0  0  0  0  0  0  0  0  0  0
  -21.2410  -30.8820  -10.9100 H   0  0  0  0  0  0  0  0  0  0  0  0
  -17.5330  -33.2480  -14.9330 H   0  0  0  0  0  0  0  0  0  0  0  0
  -17.0520  -34.4450  -16.7080 H   0  0  0  0  0  0  0  0  0  0  0  0
  -15.5480  -34.1920  -15.8480 H   0  0  0  0  0  0  0  0  0  0  0  0
  -15.7960  -36.3810  -16.8230 H   0  0  0  0  0  0  0  0  0  0  0  0
  -15.5320  -36.2950  -15.1210 H   0  0  0  0  0  0  0  0  0  0  0  0
  -15.2970  -36.6160  -11.0140 H   0  0  0  0  0  0  0  0  0  0  0  0
  -19.9180  -35.6020   -8.5900 H   0  0  0  0  0  0  0  0  0  0  0  0
  -18.5570  -35.2360   -6.5400 H   0  0  0  0  0  0  0  0  0  0  0  0
  -16.1260  -35.6580   -6.6300 H   0  0  0  0  0  0  0  0  0  0  0  0
  -18.0260  -37.2750  -16.5410 H   0  0  0  0  0  0  0  0  0  0  0  0
  -17.0310  -37.8470  -15.4320 H   0  0  0  0  0  0  0  0  0  0  0  0
  -16.4300  -37.9560  -11.0710 H   0  0  0  0  0  0  0  0  0  0  0  0
  -16.4660  -34.5020  -11.4220 H   0  0  0  0  0  0  0  0  0  0  0  0
  -16.2620  -30.7540  -12.5290 H   0  0  0  0  0  0  0  0  0  0  0  0
  -15.0800  -36.4240   -8.7120 H   0  0  0  0  0  0  0  0  0  0  0  0
  -17.9910  -34.4450  -12.2060 H   0  0  0  0  0  0  0  0  0  0  0  0
  -15.4150  -34.8140  -13.5920 H   0  0  0  0  0  0  0  0  0  0  0  0
  -14.9420  -32.4880  -13.7200 H   0  0  0  0  0  0  0  0  0  0  0  0
  -17.6250  -32.0560  -12.1400 H   0  0  0  0  0  0  0  0  0  0  0  0
  1  2  1  0  0  0  0
  1  9  1  0  0  0  0
  1 23  1  0  0  0  0
  2 17  1  0  0  0  0
  2 24  1  0  0  0  0
  2 32  1  0  0  0  0
  3  4  4  0  0  0  0
  3  8  4  0  0  0  0
  3 30  1  0  0  0  0
  4  5  4  0  0  0  0
  4 33  1  0  0  0  0
  5  6  4  0  0  0  0
  5 23  1  0  0  0  0
  6  7  4  0  0  0  0
  6 34  1  0  0  0  0
  7  8  4  0  0  0  0
  7 31  1  0  0  0  0
  8 35  1  0  0  0  0
  9 10  1  0  0  0  0
  9 27  1  0  0  0  0
  9 36  1  0  0  0  0
 10 11  1  0  0  0  0
 10 37  1  0  0  0  0
 10 38  1  0  0  0  0
 11 24  1  0  0  0  0
 11 39  1  0  0  0  0
 11 40  1  0  0  0  0
 12 13  1  0  0  0  0
 12 19  1  0  0  0  0
 12 41  1  0  0  0  0
 12 47  1  0  0  0  0
 13 20  4  0  0  0  0
 13 25  4  0  0  0  0
 14 15  4  0  0  0  0
 14 20  4  0  0  0  0
 14 42  1  0  0  0  0
 15 16  4  0  0  0  0
 15 43  1  0  0  0  0
 16 25  4  0  0  0  0
 16 44  1  0  0  0  0
 17 18  2  0  0  0  0
 17 19  1  0  0  0  0
 19 26  1  0  0  0  0
 21 23  2  0  0  0  0
 22 23  2  0  0  0  0
 24 45  1  0  0  0  0
 24 46  1  0  0  0  0
 25 50  1  0  0  0  0
 26 27  1  0  0  0  0
 26 48  1  0  0  0  0
 26 51  1  0  0  0  0
 27 28  1  0  0  0  0
 27 52  1  0  0  0  0
 28 29  1  0  0  0  0
 28 53  1  0  0  0  0
 29 49  1  0  0  0  0
 29 54  1  0  0  0  0
M  END
$$$$
