complex
  PyMOL3.0          3D                             0

 13 12  0  0  0  0  0  0  0  0999 V2000
   29.0770  -18.8680  -39.1140 C   0  0  0  0  0  0  0  0  0  0  0  0
   28.3980  -18.1240  -40.2600 C   0  0  0  0  0  0  0  0  0  0  0  0
   28.9910  -17.1680  -40.8250 O   0  0  0  0  0  0  0  0  0  0  0  0
   27.2470  -18.4660  -40.6370 O   0  0  0  0  0  0  0  0  0  0  0  0
   29.6180  -20.2040  -39.6170 C   0  0  0  0  0  0  0  0  0  0  0  0
   30.5090  -19.9750  -40.8360 C   0  0  0  0  0  0  0  0  0  0  0  0
   30.4170  -20.7340  -41.8360 O   0  0  0  0  0  0  0  0  0  0  0  0
   31.3360  -19.0270  -40.8460 O   0  0  0  0  0  0  0  0  0  0  0  0
   30.4110  -20.8700  -38.4970 C   0  0  0  0  0  0  0  0  0  0  0  0
   29.4250  -21.4850  -37.5060 C   0  0  0  0  0  0  0  0  0  0  0  0
   28.8490  -22.5710  -37.7810 O   0  0  0  0  0  0  0  0  0  0  0  0
   29.1850  -20.9040  -36.4160 O   0  0  0  0  0  0  0  0  0  0  0  0
   28.5440  -21.0330  -39.9650 O   0  0  0  0  0  0  0  0  0  0  0  0
  1  2  1  0  0  0  0
  1  5  1  0  0  0  0
  2  3  4  0  0  0  0
  2  4  4  0  0  0  0
  5  6  1  0  0  0  0
  5  9  1  0  0  0  0
  5 13  1  0  0  0  0
  6  7  4  0  0  0  0
  6  8  4  0  0  0  0
  9 10  1  0  0  0  0
 10 11  4  0  0  0  0
 10 12  4  0  0  0  0
M  END
$$$$
