complex
  PyMOL3.0          3D                             0

 13 12  0  0  0  0  0  0  0  0999 V2000
  -16.5580   -1.9860   27.6420 P   0  0  0  0  0  0  0  0  0  0  0  0
  -19.1320   -0.9060   26.9850 P   0  0  0  0  0  0  0  0  0  0  0  0
  -19.2430    1.9120   26.5950 P   0  0  0  0  0  0  0  0  0  0  0  0
  -15.7730   -1.9950   28.9310 O   0  0  0  0  0  0  0  0  0  0  0  0
  -15.6800   -1.5150   26.4910 O   0  5  0  0  0  0  0  0  0  0  0  0
  -18.8400   -1.0120   25.4780 O   0  5  0  0  0  0  0  0  0  0  0  0
  -19.4850    1.9210   25.0470 O   0  0  0  0  0  0  0  0  0  0  0  0
  -17.1690   -3.3270   27.2930 O   0  0  0  0  0  0  0  0  0  0  0  0
  -20.0880   -1.9500   27.4700 O   0  0  0  0  0  0  0  0  0  0  0  0
  -19.8770    3.0330   27.3240 O   0  5  0  0  0  0  0  0  0  0  0  0
  -17.7650   -0.9230   27.8860 O   0  0  0  0  0  0  0  0  0  0  0  0
  -19.8090    0.5400   27.3080 O   0  0  0  0  0  0  0  0  0  0  0  0
  -17.7890    2.0010   26.9760 O   0  0  0  0  0  0  0  0  0  0  0  0
  1  4  1  0  0  0  0
  1  5  1  0  0  0  0
  1  8  2  0  0  0  0
  1 11  1  0  0  0  0
  2  6  1  0  0  0  0
  2  9  2  0  0  0  0
  2 11  1  0  0  0  0
  2 12  1  0  0  0  0
  3  7  1  0  0  0  0
  3 10  1  0  0  0  0
  3 12  1  0  0  0  0
  3 13  2  0  0  0  0
M  END
$$$$
