complex
  PyMOL3.0          3D                             0

  5  4  0  0  0  0  0  0  0  0999 V2000
  -80.9380  -82.1890  -26.5440 O   0  0  0  0  0  0  0  0  0  0  0  0
  -81.7140  -84.4000  -26.7190 O   0  0  0  0  0  0  0  0  0  0  0  0
  -82.8640  -82.8750  -25.2770 O   0  5  0  0  0  0  0  0  0  0  0  0
  -80.6590  -83.6300  -24.7270 O   0  0  0  0  0  0  0  0  0  0  0  0
  -81.5540  -83.2770  -25.8140 S   0  0  0  0  0  0  0  0  0  0  0  0
  1  5  1  0  0  0  0
  2  5  1  0  0  0  0
  3  5  1  0  0  0  0
  4  5  2  0  0  0  0
M  END
$$$$
