complex
  PyMOL3.0          3D                             0

  4  3  0  0  0  0  0  0  0  0999 V2000
   19.5160   48.7790   14.5280 C   0  0  0  0  0  0  0  0  0  0  0  0
   20.2480   49.5170   15.4810 O   0  0  0  0  0  0  0  0  0  0  0  0
   18.5690   49.6330   13.7770 C   0  0  0  0  0  0  0  0  0  0  0  0
   17.7600   48.9620   12.8110 O   0  0  0  0  0  0  0  0  0  0  0  0
  1  2  1  0  0  0  0
  1  3  1  0  0  0  0
  3  4  1  0  0  0  0
M  END
$$$$
