complex
  PyMOL3.0          3D                             0

  5  4  0  0  0  0  0  0  0  0999 V2000
   -1.8130    7.0310  -14.5130 O   0  0  0  0  0  0  0  0  0  0  0  0
   -3.7050    8.4190  -15.0360 O   0  5  0  0  0  0  0  0  0  0  0  0
   -3.4470    7.5110  -12.8620 O   0  0  0  0  0  0  0  0  0  0  0  0
   -1.9390    9.2400  -13.6260 O   0  0  0  0  0  0  0  0  0  0  0  0
   -2.7290    8.0550  -14.0130 S   0  0  0  0  0  0  0  0  0  0  0  0
  1  5  1  0  0  0  0
  2  5  1  0  0  0  0
  3  5  2  0  0  0  0
  4  5  1  0  0  0  0
M  END
$$$$
