complex
  PyMOL3.0          3D                             0

 14 14  0  0  0  0  0  0  0  0999 V2000
  158.2470  239.1620  246.7620 C   0  0  0  0  0  0  0  0  0  0  0  0
  158.0060  239.5170  245.2980 C   0  0  0  0  0  0  0  0  0  0  0  0
  158.0910  240.9530  245.0870 N   0  0  0  0  0  0  0  0  0  0  0  0
  156.6450  238.9860  244.8450 C   0  0  0  0  0  0  0  0  0  0  0  0
  156.4940  239.2410  243.4520 O   0  0  0  0  0  0  0  0  0  0  0  0
  156.5130  237.4950  245.1430 C   0  0  0  0  0  0  0  0  0  0  0  0
  155.1790  237.0570  244.9020 O   0  0  0  0  0  0  0  0  0  0  0  0
  156.8420  237.2120  246.6090 C   0  0  0  0  0  0  0  0  0  0  0  0
  158.1340  237.7470  246.9380 O   0  0  0  0  0  0  0  0  0  0  0  0
  156.8950  235.7380  246.9330 C   0  0  0  0  0  0  0  0  0  0  0  0
  155.7630  235.3280  247.6890 O   0  0  0  0  0  0  0  0  0  0  0  0
  158.6750  241.5020  244.0170 C   0  0  0  0  0  0  0  0  0  0  0  0
  159.1780  240.8210  243.1300 O   0  0  0  0  0  0  0  0  0  0  0  0
  158.6750  243.0010  243.9650 C   0  0  0  0  0  0  0  0  0  0  0  0
  1  2  1  0  0  0  0
  1  9  1  0  0  0  0
  2  3  1  0  0  0  0
  2  4  1  0  0  0  0
  3 12  1  0  0  0  0
  4  5  1  0  0  0  0
  4  6  1  0  0  0  0
  6  7  1  0  0  0  0
  6  8  1  0  0  0  0
  8  9  1  0  0  0  0
  8 10  1  0  0  0  0
 10 11  1  0  0  0  0
 12 13  2  0  0  0  0
 12 14  1  0  0  0  0
M  END
$$$$
