complex
  PyMOL3.0          3D                             0

  8 12  0  0  0  0  0  0  0  0999 V2000
  -26.9310  -26.8200   45.2990 S   0  0  0  0  0  0  0  0  0  0  0  0
  -26.6730  -23.2230   45.3830 S   0  0  0  0  0  0  0  0  0  0  0  0
  -29.1020  -24.8420   47.3630 S   0  0  0  0  0  0  0  0  0  0  0  0
  -25.6170  -25.2740   48.1850 S   0  0  0  0  0  0  0  0  0  0  0  0
  -27.1520  -23.7070   47.5580 Fe  0  0  0  0  0  0  0  0  0  0  0  0
  -27.4610  -26.3820   47.4420 Fe  0  0  0  0  0  0  0  0  0  0  0  0
  -25.5490  -25.1210   45.9240 Fe  0  0  0  0  0  0  0  0  0  0  0  0
  -28.1830  -24.9010   45.3020 Fe  0  0  0  0  0  0  0  0  0  0  0  0
  1  6  1  0  0  0  0
  1  7  1  0  0  0  0
  1  8  1  0  0  0  0
  2  5  1  0  0  0  0
  2  7  1  0  0  0  0
  2  8  1  0  0  0  0
  3  5  1  0  0  0  0
  3  6  1  0  0  0  0
  3  8  1  0  0  0  0
  4  5  1  0  0  0  0
  4  6  1  0  0  0  0
  4  7  1  0  0  0  0
M  END
$$$$
