complex
  PyMOL3.0          3D                             0

 14 14  0  0  0  0  0  0  0  0999 V2000
  -25.9380    3.2850   -1.9910 C   0  0  0  0  0  0  0  0  0  0  0  0
  -24.5250    3.7440   -2.3750 C   0  0  0  0  0  0  0  0  0  0  0  0
  -23.6470    2.6010   -2.5690 N   0  0  0  0  0  0  0  0  0  0  0  0
  -23.9550    4.6770   -1.3040 C   0  0  0  0  0  0  0  0  0  0  0  0
  -22.7130    5.2090   -1.7520 O   0  0  0  0  0  0  0  0  0  0  0  0
  -24.9270    5.8090   -0.9950 C   0  0  0  0  0  0  0  0  0  0  0  0
  -24.4460    6.5800    0.1000 O   0  0  0  0  0  0  0  0  0  0  0  0
  -26.2940    5.2340   -0.6450 C   0  0  0  0  0  0  0  0  0  0  0  0
  -26.7620    4.4250   -1.7340 O   0  0  0  0  0  0  0  0  0  0  0  0
  -27.3450    6.2920   -0.4010 C   0  0  0  0  0  0  0  0  0  0  0  0
  -28.3370    5.8330    0.5080 O   0  0  0  0  0  0  0  0  0  0  0  0
  -23.1950    2.2160   -3.7670 C   0  0  0  0  0  0  0  0  0  0  0  0
  -23.5020    2.8050   -4.7970 O   0  0  0  0  0  0  0  0  0  0  0  0
  -22.2920    1.0180   -3.7750 C   0  0  0  0  0  0  0  0  0  0  0  0
  1  2  1  0  0  0  0
  1  9  1  0  0  0  0
  2  3  1  0  0  0  0
  2  4  1  0  0  0  0
  3 12  1  0  0  0  0
  4  5  1  0  0  0  0
  4  6  1  0  0  0  0
  6  7  1  0  0  0  0
  6  8  1  0  0  0  0
  8  9  1  0  0  0  0
  8 10  1  0  0  0  0
 10 11  1  0  0  0  0
 12 13  2  0  0  0  0
 12 14  1  0  0  0  0
M  END
$$$$
