complex
  PyMOL3.0          3D                             0

 17 16  0  0  0  0  0  0  0  0999 V2000
   28.8950   -0.3190  -49.5180 C   0  0  0  0  0  0  0  0  0  0  0  0
   30.1270   -0.6370  -50.1420 O   0  0  0  0  0  0  0  0  0  0  0  0
   27.8570   -1.3420  -49.8500 C   0  0  0  0  0  0  0  0  0  0  0  0
   26.6280   -1.0170  -49.2110 O   0  0  0  0  0  0  0  0  0  0  0  0
   25.5160   -1.1490  -50.0940 C   0  0  0  0  0  0  0  0  0  0  0  0
   25.2850    0.1580  -50.7900 C   0  0  0  0  0  0  0  0  0  0  0  0
   24.0670    0.1460  -51.5140 O   0  0  0  0  0  0  0  0  0  0  0  0
   30.7410   -0.0560  -50.0070 H   0  0  0  0  0  0  0  0  0  0  0  0
   23.9370    0.8440  -51.9800 H   0  0  0  0  0  0  0  0  0  0  0  0
   29.0210   -0.2940  -48.5570 H   0  0  0  0  0  0  0  0  0  0  0  0
   28.5960    0.5510  -49.8270 H   0  0  0  0  0  0  0  0  0  0  0  0
   27.7240   -1.3640  -50.8110 H   0  0  0  0  0  0  0  0  0  0  0  0
   28.1570   -2.2140  -49.5460 H   0  0  0  0  0  0  0  0  0  0  0  0
   25.7030   -1.8370  -50.7510 H   0  0  0  0  0  0  0  0  0  0  0  0
   24.7250   -1.3910  -49.5880 H   0  0  0  0  0  0  0  0  0  0  0  0
   26.0170    0.3230  -51.4050 H   0  0  0  0  0  0  0  0  0  0  0  0
   25.2530    0.8680  -50.1290 H   0  0  0  0  0  0  0  0  0  0  0  0
  1  2  1  0  0  0  0
  1  3  1  0  0  0  0
  1 10  1  0  0  0  0
  1 11  1  0  0  0  0
  2  8  1  0  0  0  0
  3  4  1  0  0  0  0
  3 12  1  0  0  0  0
  3 13  1  0  0  0  0
  4  5  1  0  0  0  0
  5  6  1  0  0  0  0
  5 14  1  0  0  0  0
  5 15  1  0  0  0  0
  6  7  1  0  0  0  0
  6 16  1  0  0  0  0
  6 17  1  0  0  0  0
  7  9  1  0  0  0  0
M  END
$$$$
