complex
  PyMOL3.0          3D                             0

 10  9  0  0  0  0  0  0  0  0999 V2000
  -37.9300  -12.5500   -4.4610 C   0  0  0  0  0  0  0  0  0  0  0  0
  -37.1360  -11.8520   -5.3970 O   0  0  0  0  0  0  0  0  0  0  0  0
  -39.3040  -12.7810   -5.0370 C   0  0  0  0  0  0  0  0  0  0  0  0
  -39.1970  -13.1620   -6.3770 O   0  0  0  0  0  0  0  0  0  0  0  0
  -36.2550  -11.7050   -5.0260 H   0  0  0  0  0  0  0  0  0  0  0  0
  -40.0800  -13.3210   -6.7380 H   0  0  0  0  0  0  0  0  0  0  0  0
  -37.4640  -13.5090   -4.2240 H   0  0  0  0  0  0  0  0  0  0  0  0
  -38.0150  -11.9830   -3.5490 H   0  0  0  0  0  0  0  0  0  0  0  0
  -39.8130  -11.8170   -4.9680 H   0  0  0  0  0  0  0  0  0  0  0  0
  -39.7560  -13.5030   -4.3790 H   0  0  0  0  0  0  0  0  0  0  0  0
  1  2  1  0  0  0  0
  1  3  1  0  0  0  0
  1  7  1  0  0  0  0
  1  8  1  0  0  0  0
  2  5  1  0  0  0  0
  3  4  1  0  0  0  0
  3  9  1  0  0  0  0
  3 10  1  0  0  0  0
  4  6  1  0  0  0  0
M  END
$$$$
