complex
  PyMOL3.0          3D                             0

 14 14  0  0  0  0  0  0  0  0999 V2000
  -29.3540   -0.4860   -2.9420 C   0  0  0  0  0  0  0  0  0  0  0  0
  -29.7150    0.7480   -2.1160 C   0  0  0  0  0  0  0  0  0  0  0  0
  -31.1420    1.0200   -2.1790 N   0  0  0  0  0  0  0  0  0  0  0  0
  -28.9130    1.9550   -2.5890 C   0  0  0  0  0  0  0  0  0  0  0  0
  -29.2090    3.0800   -1.7690 O   0  0  0  0  0  0  0  0  0  0  0  0
  -27.4240    1.6400   -2.5400 C   0  0  0  0  0  0  0  0  0  0  0  0
  -26.6630    2.7400   -3.0260 O   0  0  0  0  0  0  0  0  0  0  0  0
  -27.1400    0.3950   -3.3760 C   0  0  0  0  0  0  0  0  0  0  0  0
  -27.9320   -0.7020   -2.8970 O   0  0  0  0  0  0  0  0  0  0  0  0
  -25.6990   -0.0530   -3.3070 C   0  0  0  0  0  0  0  0  0  0  0  0
  -25.3070   -0.7280   -4.4930 O   0  0  0  0  0  0  0  0  0  0  0  0
  -31.8690    1.3510   -1.1070 C   0  0  0  0  0  0  0  0  0  0  0  0
  -31.3710    1.4520    0.0090 O   0  0  0  0  0  0  0  0  0  0  0  0
  -33.3280    1.5890   -1.3520 C   0  0  0  0  0  0  0  0  0  0  0  0
  1  2  1  0  0  0  0
  1  9  1  0  0  0  0
  2  3  1  0  0  0  0
  2  4  1  0  0  0  0
  3 12  1  0  0  0  0
  4  5  1  0  0  0  0
  4  6  1  0  0  0  0
  6  7  1  0  0  0  0
  6  8  1  0  0  0  0
  8  9  1  0  0  0  0
  8 10  1  0  0  0  0
 10 11  1  0  0  0  0
 12 13  2  0  0  0  0
 12 14  1  0  0  0  0
M  END
$$$$
