complex
  PyMOL3.0          3D                             0

 32 34  0  0  0  0  0  0  0  0999 V2000
  270.1050  210.8780  301.4890 P   0  0  0  0  0  0  0  0  0  0  0  0
  270.9700  212.3610  299.1140 P   0  0  0  0  0  0  0  0  0  0  0  0
  273.7820  212.9300  298.4600 P   0  0  0  0  0  0  0  0  0  0  0  0
  269.8820  212.2970  303.6880 C   0  0  0  0  0  0  0  0  0  0  0  0
  269.2750  211.8680  302.4420 O   0  0  0  0  0  0  0  0  0  0  0  0
  268.9400  212.0240  304.8360 C   0  0  0  0  0  0  0  0  0  0  0  0
  267.7480  211.3620  304.3370 O   0  0  0  0  0  0  0  0  0  0  0  0
  269.4830  211.1150  305.9480 C   0  0  0  0  0  0  0  0  0  0  0  0
  269.0140  211.5280  307.2260 O   0  0  0  0  0  0  0  0  0  0  0  0
  268.9230  209.7460  305.5570 C   0  0  0  0  0  0  0  0  0  0  0  0
  268.8240  208.8540  306.6440 O   0  0  0  0  0  0  0  0  0  0  0  0
  267.5530  210.1430  305.0170 C   0  0  0  0  0  0  0  0  0  0  0  0
  263.5000  207.3510  303.6740 N   0  0  0  0  0  0  0  0  0  0  0  0
  271.0080  210.0310  302.3230 O   0  5  0  0  0  0  0  0  0  0  0  0
  269.7890  213.2470  298.8950 O   0  5  0  0  0  0  0  0  0  0  0  0
  273.6400  212.8490  296.9610 O   0  0  0  0  0  0  0  0  0  0  0  0
  263.6380  208.2140  304.7350 C   0  0  0  0  0  0  0  0  0  0  0  0
  262.5730  208.3550  305.5350 N   0  0  0  0  0  0  0  0  0  0  0  0
  269.1660  210.1950  300.5500 O   0  0  0  0  0  0  0  0  0  0  0  0
  271.1550  211.1530  298.2590 O   0  0  0  0  0  0  0  0  0  0  0  0
  274.1900  211.6160  299.0790 O   0  5  0  0  0  0  0  0  0  0  0  0
  264.7540  208.8960  304.9910 N   0  0  0  0  0  0  0  0  0  0  0  0
  270.9960  211.9160  300.6520 O   0  0  0  0  0  0  0  0  0  0  0  0
  272.3020  213.2440  299.0210 O   0  0  0  0  0  0  0  0  0  0  0  0
  274.6560  214.0770  298.9010 O   0  0  0  0  0  0  0  0  0  0  0  0
  265.7300  208.6370  304.0870 C   0  0  0  0  0  0  0  0  0  0  0  0
  265.6780  207.7900  303.0000 C   0  0  0  0  0  0  0  0  0  0  0  0
  264.4890  207.0710  302.7320 C   0  0  0  0  0  0  0  0  0  0  0  0
  264.2680  206.2760  301.8070 O   0  0  0  0  0  0  0  0  0  0  0  0
  266.8860  207.8020  302.3150 N   0  0  0  0  0  0  0  0  0  0  0  0
  267.6340  208.6370  302.9930 C   0  0  0  0  0  0  0  0  0  0  0  0
  266.9940  209.1810  304.0770 N   0  0  0  0  0  0  0  0  0  0  0  0
  1  5  1  0  0  0  0
  1 14  1  0  0  0  0
  1 19  2  0  0  0  0
  1 23  1  0  0  0  0
  2 15  1  0  0  0  0
  2 20  2  0  0  0  0
  2 23  1  0  0  0  0
  2 24  1  0  0  0  0
  3 16  1  0  0  0  0
  3 21  1  0  0  0  0
  3 24  1  0  0  0  0
  3 25  2  0  0  0  0
  4  5  1  0  0  0  0
  4  6  1  0  0  0  0
  6  7  1  0  0  0  0
  6  8  1  0  0  0  0
  7 12  1  0  0  0  0
  8  9  1  0  0  0  0
  8 10  1  0  0  0  0
 10 11  1  0  0  0  0
 10 12  1  0  0  0  0
 12 32  1  0  0  0  0
 13 17  4  0  0  0  0
 13 28  4  0  0  0  0
 17 18  1  0  0  0  0
 17 22  4  0  0  0  0
 22 26  4  0  0  0  0
 26 27  4  0  0  0  0
 26 32  4  0  0  0  0
 27 28  4  0  0  0  0
 27 30  4  0  0  0  0
 28 29  2  0  0  0  0
 30 31  4  0  0  0  0
 31 32  4  0  0  0  0
M  END
$$$$
