complex
  PyMOL3.0          3D                             0

 16 15  0  0  0  0  0  0  0  0999 V2000
  -90.2140  -35.5340  -22.0660 C   0  0  0  0  0  0  0  0  0  0  0  0
  -90.5160  -35.1050  -20.6250 C   0  0  0  0  0  0  0  0  0  0  0  0
  -90.5930  -36.3710  -19.7480 C   0  0  0  0  0  0  0  0  0  0  0  0
  -89.2290  -37.0550  -19.6420 C   0  0  0  0  0  0  0  0  0  0  0  0
  -91.7450  -34.3380  -20.5820 O   0  0  0  0  0  0  0  0  0  0  0  0
  -91.0790  -36.1030  -18.4030 O   0  0  0  0  0  0  0  0  0  0  0  0
  -92.2730  -34.5300  -21.3690 H   0  0  0  0  0  0  0  0  0  0  0  0
  -90.3430  -35.8130  -17.8460 H   0  0  0  0  0  0  0  0  0  0  0  0
  -89.7230  -34.4510  -20.2370 H   0  0  0  0  0  0  0  0  0  0  0  0
  -91.3150  -37.0320  -20.2460 H   0  0  0  0  0  0  0  0  0  0  0  0
  -90.2800  -34.6930  -22.7060 H   0  0  0  0  0  0  0  0  0  0  0  0
  -89.2370  -35.9400  -22.1150 H   0  0  0  0  0  0  0  0  0  0  0  0
  -90.9160  -36.2660  -22.3710 H   0  0  0  0  0  0  0  0  0  0  0  0
  -89.2890  -37.8580  -18.9540 H   0  0  0  0  0  0  0  0  0  0  0  0
  -88.5080  -36.3560  -19.3050 H   0  0  0  0  0  0  0  0  0  0  0  0
  -88.9450  -37.4250  -20.5920 H   0  0  0  0  0  0  0  0  0  0  0  0
  1  2  1  0  0  0  0
  1 11  1  0  0  0  0
  1 12  1  0  0  0  0
  1 13  1  0  0  0  0
  2  3  1  0  0  0  0
  2  5  1  0  0  0  0
  2  9  1  0  0  0  0
  3  4  1  0  0  0  0
  3  6  1  0  0  0  0
  3 10  1  0  0  0  0
  4 14  1  0  0  0  0
  4 15  1  0  0  0  0
  4 16  1  0  0  0  0
  5  7  1  0  0  0  0
  6  8  1  0  0  0  0
M  END
$$$$
