complex
  PyMOL3.0          3D                             0

 17 18  0  0  0  0  0  0  0  0999 V2000
   34.0210  -33.4410  143.0960 O   0  0  0  0  0  0  0  0  0  0  0  0
   34.7880  -34.2760  143.5370 C   0  0  0  0  0  0  0  0  0  0  0  0
   35.2750  -35.2380  142.7330 N   0  0  0  0  0  0  0  0  0  0  0  0
   36.1270  -36.1790  143.1950 C   0  0  0  0  0  0  0  0  0  0  0  0
   36.5050  -36.1390  144.5320 C   0  0  0  0  0  0  0  0  0  0  0  0
   35.9850  -35.1350  145.3300 C   0  0  0  0  0  0  0  0  0  0  0  0
   36.2960  -35.0810  146.5050 O   0  0  0  0  0  0  0  0  0  0  0  0
   35.1440  -34.2310  144.8240 N   0  0  0  0  0  0  0  0  0  0  0  0
   37.4830  -37.1780  145.1560 C   0  0  0  0  0  0  0  0  0  0  0  0
   38.7010  -36.8190  145.0500 O   0  0  0  0  0  0  0  0  0  0  0  0
   39.5840  -38.1300  144.7140 C   0  0  0  0  0  0  0  0  0  0  0  0
   40.5830  -37.8580  143.6130 C   0  0  0  0  0  0  0  0  0  0  0  0
   41.6270  -37.0670  144.1420 O   0  0  0  0  0  0  0  0  0  0  0  0
   38.7850  -39.0790  144.3740 C   0  0  0  0  0  0  0  0  0  0  0  0
   39.0700  -40.3450  145.1460 O   0  0  0  0  0  0  0  0  0  0  0  0
   37.3540  -38.5960  144.5680 C   0  0  0  0  0  0  0  0  0  0  0  0
   36.7250  -39.3900  145.4770 O   0  0  0  0  0  0  0  0  0  0  0  0
  1  2  2  0  0  0  0
  2  3  4  0  0  0  0
  2  8  4  0  0  0  0
  3  4  4  0  0  0  0
  4  5  4  0  0  0  0
  5  6  4  0  0  0  0
  5  9  1  0  0  0  0
  6  7  2  0  0  0  0
  6  8  4  0  0  0  0
  9 10  1  0  0  0  0
  9 16  1  0  0  0  0
 10 11  1  0  0  0  0
 11 12  1  0  0  0  0
 11 14  1  0  0  0  0
 12 13  1  0  0  0  0
 14 15  1  0  0  0  0
 14 16  1  0  0  0  0
 16 17  1  0  0  0  0
M  END
$$$$
