complex
  PyMOL3.0          3D                             0

  8  7  0  0  0  0  0  0  0  0999 V2000
    0.8330   18.0930   -4.1710 N   0  0  0  0  0  0  0  0  0  0  0  0
   -0.0400   18.9810   -3.4470 C   0  0  0  0  0  0  0  0  0  0  0  0
    0.5540   20.3810   -3.4330 C   0  0  0  0  0  0  0  0  0  0  0  0
    1.7360   20.5460   -3.1320 O   0  0  0  0  0  0  0  0  0  0  0  0
   -0.2100   18.5010   -2.0130 C   0  0  0  0  0  0  0  0  0  0  0  0
   -1.6540   18.3390   -1.6520 C   0  0  0  0  0  0  0  0  0  0  0  0
   -2.6230   15.4930   -0.5510 C   0  0  0  0  0  0  0  0  0  0  0  0
   -1.6960   17.1750   -0.0970 Se  0  0  0  0  0  0  0  0  0  0  0  0
  1  2  1  0  0  0  0
  2  3  1  0  0  0  0
  2  5  1  0  0  0  0
  3  4  2  0  0  0  0
  5  6  1  0  0  0  0
  6  8  1  0  0  0  0
  7  8  1  0  0  0  0
M  END
$$$$
