complex
  PyMOL3.0          3D                             0

 11 11  0  0  0  0  0  0  0  0999 V2000
  229.7790  263.4930  262.9430 C   0  0  0  0  0  0  0  0  0  0  0  0
  229.8900  264.8280  263.7520 C   0  0  0  0  0  0  0  0  0  0  0  0
  230.8250  265.7270  263.1580 O   0  0  0  0  0  0  0  0  0  0  0  0
  228.5380  265.5790  263.7760 C   0  0  0  0  0  0  0  0  0  0  0  0
  228.6710  266.8800  264.3370 O   0  0  0  0  0  0  0  0  0  0  0  0
  227.8880  265.6700  262.3750 C   0  0  0  0  0  0  0  0  0  0  0  0
  226.6070  266.2640  262.4700 O   0  0  0  0  0  0  0  0  0  0  0  0
  227.7570  264.2570  261.7880 C   0  0  0  0  0  0  0  0  0  0  0  0
  229.0820  263.6630  261.7070 O   0  0  0  0  0  0  0  0  0  0  0  0
  227.1620  264.2410  260.3970 C   0  0  0  0  0  0  0  0  0  0  0  0
  226.9900  262.8830  260.0060 O   0  0  0  0  0  0  0  0  0  0  0  0
  1  2  1  0  0  0  0
  1  9  1  0  0  0  0
  2  3  1  0  0  0  0
  2  4  1  0  0  0  0
  4  5  1  0  0  0  0
  4  6  1  0  0  0  0
  6  7  1  0  0  0  0
  6  8  1  0  0  0  0
  8  9  1  0  0  0  0
  8 10  1  0  0  0  0
 10 11  1  0  0  0  0
M  END
$$$$
