complex
  PyMOL3.0          3D                             0

 23 27  0  0  0  0  0  0  0  0999 V2000
  -10.3740  -28.7950    6.1200 Cl  0  0  0  0  0  0  0  0  0  0  0  0
  -14.8940  -25.9000    8.9160 C   0  0  0  0  0  0  0  0  0  0  0  0
  -16.1160  -25.5640    8.0810 C   0  0  0  0  0  0  0  0  0  0  0  0
  -13.7460  -26.6590    8.2480 C   0  0  0  0  0  0  0  0  0  0  0  0
  -14.5950  -24.8380   10.0120 C   0  0  0  0  0  0  0  0  0  0  0  0
  -15.0750  -26.2480   10.4180 C   0  0  0  0  0  0  0  0  0  0  0  0
  -17.0040  -26.5070    7.7640 N   0  0  0  0  0  0  0  0  0  0  0  0
  -16.2510  -24.2900    7.6660 C   0  0  0  0  0  0  0  0  0  0  0  0
  -13.5900  -26.5120    6.8580 C   0  0  0  0  0  0  0  0  0  0  0  0
  -12.8590  -27.4650    8.9680 C   0  0  0  0  0  0  0  0  0  0  0  0
  -18.1220  -26.2670    7.1410 C   0  0  0  0  0  0  0  0  0  0  0  0
  -16.8940  -27.9330    8.0400 C   0  0  0  0  0  0  0  0  0  0  0  0
  -17.4660  -23.8770    6.8840 C   0  0  0  0  0  0  0  0  0  0  0  0
  -12.5580  -27.1620    6.1860 C   0  0  0  0  0  0  0  0  0  0  0  0
  -11.8290  -28.1170    8.2960 C   0  0  0  0  0  0  0  0  0  0  0  0
  -18.4380  -24.8690    6.6370 C   0  0  0  0  0  0  0  0  0  0  0  0
  -18.9270  -27.2340    6.9920 N   0  0  0  0  0  0  0  0  0  0  0  0
  -18.3120  -28.3990    7.5930 C   0  0  0  0  0  0  0  0  0  0  0  0
  -17.6650  -22.5530    6.4890 C   0  0  0  0  0  0  0  0  0  0  0  0
  -11.6830  -27.9650    6.9170 C   0  0  0  0  0  0  0  0  0  0  0  0
  -19.6190  -24.5470    5.9570 C   0  0  0  0  0  0  0  0  0  0  0  0
  -18.8480  -22.2320    5.8090 C   0  0  0  0  0  0  0  0  0  0  0  0
  -19.8170  -23.2190    5.5440 C   0  0  0  0  0  0  0  0  0  0  0  0
  1 20  1  0  0  0  0
  2  3  1  0  0  0  0
  2  4  1  0  0  0  0
  2  5  1  0  0  0  0
  2  6  1  0  0  0  0
  3  7  4  0  0  0  0
  3  8  4  0  0  0  0
  4  9  4  0  0  0  0
  4 10  4  0  0  0  0
  5  6  1  0  0  0  0
  7 11  4  0  0  0  0
  7 12  4  0  0  0  0
  8 13  4  0  0  0  0
  9 14  4  0  0  0  0
 10 15  4  0  0  0  0
 11 16  4  0  0  0  0
 11 17  4  0  0  0  0
 12 18  4  0  0  0  0
 13 16  4  0  0  0  0
 13 19  4  0  0  0  0
 14 20  4  0  0  0  0
 15 20  4  0  0  0  0
 16 21  4  0  0  0  0
 17 18  4  0  0  0  0
 19 22  4  0  0  0  0
 21 23  4  0  0  0  0
 22 23  4  0  0  0  0
M  END
$$$$
