complex
  PyMOL3.0          3D                             0

 43 46  0  0  0  0  0  0  0  0999 V2000
  213.8250  217.4610  169.9690 C   0  0  0  0  0  0  0  0  0  0  0  0
  207.9730  214.2720  165.9910 C   0  0  0  0  0  0  0  0  0  0  0  0
  209.0170  209.0580  165.3340 C   0  0  0  0  0  0  0  0  0  0  0  0
  215.5960  204.5420  166.8940 C   0  0  0  0  0  0  0  0  0  0  0  0
  214.5430  218.3230  170.9580 C   0  0  0  0  0  0  0  0  0  0  0  0
  207.9370  214.0850  164.4770 C   0  0  0  0  0  0  0  0  0  0  0  0
  208.8220  209.6120  163.9150 C   0  0  0  0  0  0  0  0  0  0  0  0
  216.7230  204.0260  166.4820 C   0  0  0  0  0  0  0  0  0  0  0  0
  206.6470  214.5260  163.8030 C   0  0  0  0  0  0  0  0  0  0  0  0
  209.4890  208.8160  162.8020 C   0  0  0  0  0  0  0  0  0  0  0  0
  212.3460  215.8030  167.9710 C   0  0  0  0  0  0  0  0  0  0  0  0
  209.9750  211.8740  166.3540 C   0  0  0  0  0  0  0  0  0  0  0  0
  213.6950  209.0730  167.1340 C   0  0  0  0  0  0  0  0  0  0  0  0
  216.7110  216.5980  168.5340 C   0  0  0  0  0  0  0  0  0  0  0  0
  209.5280  216.8420  167.0560 C   0  0  0  0  0  0  0  0  0  0  0  0
  211.3660  207.1190  165.9500 C   0  0  0  0  0  0  0  0  0  0  0  0
  215.1420  206.9320  168.9730 C   0  0  0  0  0  0  0  0  0  0  0  0
  215.5190  214.4070  168.9460 C   0  0  0  0  0  0  0  0  0  0  0  0
  211.3420  215.0200  167.4420 C   0  0  0  0  0  0  0  0  0  0  0  0
  210.6520  210.7100  166.5440 C   0  0  0  0  0  0  0  0  0  0  0  0
  214.3870  207.9980  166.6770 C   0  0  0  0  0  0  0  0  0  0  0  0
  206.6620  215.5850  163.1390 O   0  0  0  0  0  0  0  0  0  0  0  0
  209.8200  209.4290  161.7670 O   0  0  0  0  0  0  0  0  0  0  0  0
  215.7160  215.8460  169.4260 C   0  0  0  0  0  0  0  0  0  0  0  0
  210.0420  215.4380  167.0070 C   0  0  0  0  0  0  0  0  0  0  0  0
  210.3100  209.4170  166.0180 C   0  0  0  0  0  0  0  0  0  0  0  0
  214.9230  206.9370  167.4860 C   0  0  0  0  0  0  0  0  0  0  0  0
  205.6380  213.8030  163.9250 O   0  0  0  0  0  0  0  0  0  0  0  0
  209.6660  207.5900  162.9610 O   0  0  0  0  0  0  0  0  0  0  0  0
  214.2970  216.3690  169.3590 C   0  0  0  0  0  0  0  0  0  0  0  0
  209.3710  214.3270  166.5490 C   0  0  0  0  0  0  0  0  0  0  0  0
  211.3560  208.5860  166.2800 C   0  0  0  0  0  0  0  0  0  0  0  0
  215.1700  205.8400  166.5950 C   0  0  0  0  0  0  0  0  0  0  0  0
  213.5540  215.5110  168.5390 C   0  0  0  0  0  0  0  0  0  0  0  0
  210.2490  213.1990  166.6930 C   0  0  0  0  0  0  0  0  0  0  0  0
  212.3850  209.3770  166.9110 C   0  0  0  0  0  0  0  0  0  0  0  0
  214.8570  206.3520  165.2370 C   0  0  0  0  0  0  0  0  0  0  0  0
  214.2620  214.3160  168.4320 N   0  0  0  0  0  0  0  0  0  0  0  0
  211.4220  213.6680  167.2300 N   0  0  0  0  0  0  0  0  0  0  0  0
  211.7900  210.5490  167.2840 N   0  0  0  0  0  0  0  0  0  0  0  0
  214.6830  207.7110  165.3530 N   0  0  0  0  0  0  0  0  0  0  0  0
  216.3340  213.5040  169.0120 O   0  0  0  0  0  0  0  0  0  0  0  0
  214.7590  205.7140  164.2000 O   0  0  0  0  0  0  0  0  0  0  0  0
  1  5  1  0  0  0  0
  1 30  1  0  0  0  0
  2  6  1  0  0  0  0
  2 31  1  0  0  0  0
  3  7  1  0  0  0  0
  3 26  1  0  0  0  0
  4  8  1  0  0  0  0
  4 33  1  0  0  0  0
  6  9  1  0  0  0  0
  7 10  1  0  0  0  0
  9 22  4  0  0  0  0
  9 28  4  0  0  0  0
 10 23  4  0  0  0  0
 10 29  4  0  0  0  0
 11 19  1  0  0  0  0
 11 34  1  0  0  0  0
 12 20  1  0  0  0  0
 12 35  1  0  0  0  0
 13 21  1  0  0  0  0
 13 36  1  0  0  0  0
 14 24  1  0  0  0  0
 15 25  1  0  0  0  0
 16 32  1  0  0  0  0
 17 27  1  0  0  0  0
 18 24  1  0  0  0  0
 18 38  1  0  0  0  0
 18 42  2  0  0  0  0
 19 25  4  0  0  0  0
 19 39  4  0  0  0  0
 20 26  4  0  0  0  0
 20 40  4  0  0  0  0
 21 27  1  0  0  0  0
 21 41  1  0  0  0  0
 24 30  1  0  0  0  0
 25 31  4  0  0  0  0
 26 32  4  0  0  0  0
 27 33  1  0  0  0  0
 30 34  1  0  0  0  0
 31 35  4  0  0  0  0
 32 36  4  0  0  0  0
 33 37  1  0  0  0  0
 34 38  1  0  0  0  0
 35 39  4  0  0  0  0
 36 40  4  0  0  0  0
 37 41  1  0  0  0  0
 37 43  2  0  0  0  0
M  END
$$$$
