complex
  PyMOL3.0          3D                             0

 14 14  0  0  0  0  0  0  0  0999 V2000
   70.8340  -56.9450   33.9910 C   0  0  0  0  0  0  0  0  0  0  0  0
   70.9520  -57.2890   35.4790 C   0  0  0  0  0  0  0  0  0  0  0  0
   72.1290  -58.1020   35.7390 N   0  0  0  0  0  0  0  0  0  0  0  0
   69.6930  -58.0010   35.9630 C   0  0  0  0  0  0  0  0  0  0  0  0
   69.7830  -58.2170   37.3670 O   0  0  0  0  0  0  0  0  0  0  0  0
   68.4590  -57.1690   35.6440 C   0  0  0  0  0  0  0  0  0  0  0  0
   67.2810  -57.8750   36.0140 O   0  0  0  0  0  0  0  0  0  0  0  0
   68.4170  -56.8560   34.1530 C   0  0  0  0  0  0  0  0  0  0  0  0
   69.6270  -56.1910   33.7600 O   0  0  0  0  0  0  0  0  0  0  0  0
   67.2740  -55.9400   33.7780 C   0  0  0  0  0  0  0  0  0  0  0  0
   67.3400  -55.5520   32.4130 O   0  0  0  0  0  0  0  0  0  0  0  0
   73.1410  -57.6950   36.5120 C   0  0  0  0  0  0  0  0  0  0  0  0
   73.1440  -56.5940   37.0520 O   0  0  0  0  0  0  0  0  0  0  0  0
   74.2720  -58.6640   36.6770 C   0  0  0  0  0  0  0  0  0  0  0  0
  1  2  1  0  0  0  0
  1  9  1  0  0  0  0
  2  3  1  0  0  0  0
  2  4  1  0  0  0  0
  3 12  1  0  0  0  0
  4  5  1  0  0  0  0
  4  6  1  0  0  0  0
  6  7  1  0  0  0  0
  6  8  1  0  0  0  0
  8  9  1  0  0  0  0
  8 10  1  0  0  0  0
 10 11  1  0  0  0  0
 12 13  2  0  0  0  0
 12 14  1  0  0  0  0
M  END
$$$$
