complex
  PyMOL3.0          3D                             0

  8  8  0  0  0  0  0  0  0  0999 V2000
   16.6280   17.2050   51.5170 N   0  0  0  0  0  0  0  0  0  0  0  0
   15.8420   16.0750   52.0510 C   0  0  0  0  0  0  0  0  0  0  0  0
   16.6820   14.8380   52.3760 C   0  0  0  0  0  0  0  0  0  0  0  0
   17.8540   14.7420   52.0160 O   0  0  0  0  0  0  0  0  0  0  0  0
   14.9060   15.7380   50.8910 C   0  0  0  0  0  0  0  0  0  0  0  0
   15.7430   16.0050   49.7120 C   0  0  0  0  0  0  0  0  0  0  0  0
   16.5250   17.2670   50.0450 C   0  0  0  0  0  0  0  0  0  0  0  0
   16.1920   13.8810   52.9920 O   0  0  0  0  0  0  0  0  0  0  0  0
  1  2  1  0  0  0  0
  1  7  1  0  0  0  0
  2  3  1  0  0  0  0
  2  5  1  0  0  0  0
  3  4  4  0  0  0  0
  3  8  4  0  0  0  0
  5  6  1  0  0  0  0
  6  7  1  0  0  0  0
M  END
$$$$
