complex
  PyMOL3.0          3D                             0

 14 13  0  0  0  0  0  0  0  0999 V2000
  -28.5470  -24.6650    1.7330 C   0  0  0  0  0  0  0  0  0  0  0  0
  -29.7720  -25.0500    2.3390 O   0  0  0  0  0  0  0  0  0  0  0  0
  -27.3460  -25.1190    2.5410 C   0  0  0  0  0  0  0  0  0  0  0  0
  -26.5960  -26.0620    1.7910 O   0  0  0  0  0  0  0  0  0  0  0  0
  -26.4980  -23.9560    3.0160 C   0  0  0  0  0  0  0  0  0  0  0  0
  -25.1260  -23.9230    2.6270 O   0  0  0  0  0  0  0  0  0  0  0  0
  -30.4250  -24.8380    1.8460 H   0  0  0  0  0  0  0  0  0  0  0  0
  -25.8210  -25.7920    1.7390 H   0  0  0  0  0  0  0  0  0  0  0  0
  -24.9430  -24.6980    2.3490 H   0  0  0  0  0  0  0  0  0  0  0  0
  -27.6870  -25.5800    3.3440 H   0  0  0  0  0  0  0  0  0  0  0  0
  -28.5280  -23.6820    1.6370 H   0  0  0  0  0  0  0  0  0  0  0  0
  -28.5000  -25.0610    0.8320 H   0  0  0  0  0  0  0  0  0  0  0  0
  -26.5300  -23.9480    4.0020 H   0  0  0  0  0  0  0  0  0  0  0  0
  -26.9210  -23.1220    2.7070 H   0  0  0  0  0  0  0  0  0  0  0  0
  1  2  1  0  0  0  0
  1  3  1  0  0  0  0
  1 11  1  0  0  0  0
  1 12  1  0  0  0  0
  2  7  1  0  0  0  0
  3  4  1  0  0  0  0
  3  5  1  0  0  0  0
  3 10  1  0  0  0  0
  4  8  1  0  0  0  0
  5  6  1  0  0  0  0
  5 13  1  0  0  0  0
  5 14  1  0  0  0  0
  6  9  1  0  0  0  0
M  END
$$$$
