complex
  PyMOL3.0          3D                             0

 27 28  0  0  0  0  0  0  0  0999 V2000
  -21.8160   -8.9360   61.0950 C   0  0  0  0  0  0  0  0  0  0  0  0
  -25.3920   -8.7320   61.0740 C   0  0  0  0  0  0  0  0  0  0  0  0
  -23.2670   -7.5730   57.9790 C   0  0  0  0  0  0  0  0  0  0  0  0
  -27.9550  -12.6250   58.5280 C   0  0  0  0  0  0  0  0  0  0  0  0
  -31.0110  -12.0820   58.0840 C   0  0  0  0  0  0  0  0  0  0  0  0
  -29.7250  -12.5480   60.1870 C   0  0  0  0  0  0  0  0  0  0  0  0
  -27.8260   -8.9370   57.4460 C   0  0  0  0  0  0  0  0  0  0  0  0
  -26.6410   -9.3390   58.2070 C   0  0  0  0  0  0  0  0  0  0  0  0
  -22.0420   -9.0940   59.5990 C   0  0  0  0  0  0  0  0  0  0  0  0
  -25.3690   -9.8660   60.0740 C   0  0  0  0  0  0  0  0  0  0  0  0
  -30.2430  -13.1310   58.8800 C   0  0  0  0  0  0  0  0  0  0  0  0
  -28.2760  -12.1600   59.9430 C   0  0  0  0  0  0  0  0  0  0  0  0
  -23.3960   -8.4990   59.1850 C   0  0  0  0  0  0  0  0  0  0  0  0
  -24.4490   -9.5690   58.8960 C   0  0  0  0  0  0  0  0  0  0  0  0
  -26.7040   -9.8590   59.4150 C   0  0  0  0  0  0  0  0  0  0  0  0
  -32.7750  -11.2930   60.9970 N   0  0  0  0  0  0  0  0  0  0  0  0
  -25.3740   -9.1970   57.8280 N   0  0  0  0  0  0  0  0  0  0  0  0
  -29.0460  -13.5280   58.1170 N   0  0  0  0  0  0  0  0  0  0  0  0
  -32.4210  -12.0400   58.5050 N   0  0  0  0  0  0  0  0  0  0  0  0
  -23.6950   -6.4320   57.9630 O   0  0  0  0  0  0  0  0  0  0  0  0
  -28.6580   -9.8360   56.9220 O   0  0  0  0  0  0  0  0  0  0  0  0
  -33.8820  -10.1200   59.0960 O   0  0  0  0  0  0  0  0  0  0  0  0
  -31.5690   -9.8570   59.3570 O   0  0  0  0  0  0  0  0  0  0  0  0
  -28.0790   -7.7520   57.2970 O   0  0  0  0  0  0  0  0  0  0  0  0
  -21.9610  -10.4950   59.2930 O   0  0  0  0  0  0  0  0  0  0  0  0
  -28.1180  -10.4090   60.0980 S   0  0  0  0  0  0  0  0  0  0  0  0
  -32.6640  -10.7790   59.4760 S   0  0  0  0  0  0  0  0  0  0  0  0
  1  9  1  0  0  0  0
  2 10  1  0  0  0  0
  3 13  1  0  0  0  0
  3 20  1  0  0  0  0
  4 12  1  0  0  0  0
  4 18  1  0  0  0  0
  5 11  1  0  0  0  0
  5 19  1  0  0  0  0
  6 11  1  0  0  0  0
  6 12  1  0  0  0  0
  7  8  1  0  0  0  0
  7 21  4  0  0  0  0
  7 24  4  0  0  0  0
  8 15  1  0  0  0  0
  8 17  1  0  0  0  0
  9 13  1  0  0  0  0
  9 25  1  0  0  0  0
 10 14  1  0  0  0  0
 10 15  1  0  0  0  0
 11 18  1  0  0  0  0
 12 26  1  0  0  0  0
 13 14  1  0  0  0  0
 14 17  1  0  0  0  0
 15 26  1  0  0  0  0
 16 27  1  0  0  0  0
 19 27  1  0  0  0  0
 22 27  2  0  0  0  0
 23 27  2  0  0  0  0
M  END
$$$$
