complex
  PyMOL3.0          3D                             0

 11 11  0  0  0  0  0  0  0  0999 V2000
  250.1730  196.6890  246.6940 C   0  0  0  0  0  0  0  0  0  0  0  0
  250.8810  196.3490  245.3170 C   0  0  0  0  0  0  0  0  0  0  0  0
  249.9330  196.1090  244.2960 O   0  0  0  0  0  0  0  0  0  0  0  0
  251.6780  197.5890  244.8950 C   0  0  0  0  0  0  0  0  0  0  0  0
  252.4740  197.3710  243.7270 O   0  0  0  0  0  0  0  0  0  0  0  0
  250.7410  198.8200  244.7460 C   0  0  0  0  0  0  0  0  0  0  0  0
  251.4600  199.9770  244.3580 O   0  0  0  0  0  0  0  0  0  0  0  0
  250.0360  199.0720  246.1110 C   0  0  0  0  0  0  0  0  0  0  0  0
  249.3120  197.8570  246.5030 O   0  0  0  0  0  0  0  0  0  0  0  0
  249.0850  200.2670  246.1100 C   0  0  0  0  0  0  0  0  0  0  0  0
  247.7860  199.8390  245.7250 O   0  0  0  0  0  0  0  0  0  0  0  0
  1  2  1  0  0  0  0
  1  9  1  0  0  0  0
  2  3  1  0  0  0  0
  2  4  1  0  0  0  0
  4  5  1  0  0  0  0
  4  6  1  0  0  0  0
  6  7  1  0  0  0  0
  6  8  1  0  0  0  0
  8  9  1  0  0  0  0
  8 10  1  0  0  0  0
 10 11  1  0  0  0  0
M  END
$$$$
