complex
  PyMOL3.0          3D                             0

 15 17  0  0  0  0  0  0  0  0999 V2000
   16.1620   16.7000  -25.4000 C   0  0  0  0  0  0  0  0  0  0  0  0
   15.4330   16.8430  -24.2550 C   0  0  0  0  0  0  0  0  0  0  0  0
   16.1740   15.4280  -26.0900 C   0  0  0  0  0  0  0  0  0  0  0  0
   14.6750   15.7310  -23.7380 C   0  0  0  0  0  0  0  0  0  0  0  0
   15.4370   14.3510  -25.5860 C   0  0  0  0  0  0  0  0  0  0  0  0
   14.6870   14.5020  -24.4100 C   0  0  0  0  0  0  0  0  0  0  0  0
   16.7810   17.9580  -25.6300 N   0  0  0  0  0  0  0  0  0  0  0  0
   16.4100   18.7500  -24.6680 C   0  0  0  0  0  0  0  0  0  0  0  0
   15.6100   18.0980  -23.8430 O   0  0  0  0  0  0  0  0  0  0  0  0
   16.8510   20.2350  -24.5150 C   0  0  0  0  0  0  0  0  0  0  0  0
   15.7050   21.1270  -24.8770 C   0  0  0  0  0  0  0  0  0  0  0  0
   15.9560   22.5740  -24.5950 C   0  0  0  0  0  0  0  0  0  0  0  0
   17.2440   22.8160  -23.7920 C   0  0  0  0  0  0  0  0  0  0  0  0
   17.3190   21.8670  -22.6280 N   0  0  0  0  0  0  0  0  0  0  0  0
   17.3570   20.4540  -23.0610 C   0  0  0  0  0  0  0  0  0  0  0  0
  1  2  4  0  0  0  0
  1  3  4  0  0  0  0
  1  7  4  0  0  0  0
  2  4  4  0  0  0  0
  2  9  4  0  0  0  0
  3  5  4  0  0  0  0
  4  6  4  0  0  0  0
  5  6  4  0  0  0  0
  7  8  4  0  0  0  0
  8  9  4  0  0  0  0
  8 10  1  0  0  0  0
 10 11  1  0  0  0  0
 10 15  1  0  0  0  0
 11 12  1  0  0  0  0
 12 13  1  0  0  0  0
 13 14  1  0  0  0  0
 14 15  1  0  0  0  0
M  END
$$$$
