complex
  PyMOL3.0          3D                             0

  5  4  0  0  0  0  0  0  0  0999 V2000
  106.3860   29.5750   96.0550 O   0  0  0  0  0  0  0  0  0  0  0  0
  104.5010   28.1780   95.9910 O   0  0  0  0  0  0  0  0  0  0  0  0
  105.2150   29.0960   98.0300 O   0  5  0  0  0  0  0  0  0  0  0  0
  104.2500   30.4760   96.4000 O   0  0  0  0  0  0  0  0  0  0  0  0
  105.0880   29.3300   96.6180 S   0  0  0  0  0  0  0  0  0  0  0  0
  1  5  1  0  0  0  0
  2  5  1  0  0  0  0
  3  5  1  0  0  0  0
  4  5  2  0  0  0  0
M  END
$$$$
