complex
  PyMOL3.0          3D                             0

 26 28  0  0  0  0  0  0  0  0999 V2000
   25.5190   23.6210    5.6600 N   0  0  0  0  0  0  0  0  0  0  0  0
   26.3680   24.3100    4.6500 C   0  0  0  0  0  0  0  0  0  0  0  0
   27.7710   24.6400    5.1590 C   0  0  0  0  0  0  0  0  0  0  0  0
   28.5250   25.4170    4.5920 O   0  0  0  0  0  0  0  0  0  0  0  0
   25.6930   25.5150    3.9770 C   0  0  0  0  0  0  0  0  0  0  0  0
   25.1520   26.5820    4.9190 C   0  0  0  0  0  0  0  0  0  0  0  0
   24.5660   28.0670    4.0430 S   0  0  0  0  0  0  0  0  0  0  0  0
   22.7830   27.9740    4.2990 C   0  0  0  0  0  0  0  0  0  0  0  0
   22.1140   27.0000    3.3440 C   0  0  0  0  0  0  0  0  0  0  0  0
   20.7700   26.7790    3.8350 O   0  0  0  0  0  0  0  0  0  0  0  0
   21.9640   27.4530    1.8850 C   0  0  0  0  0  0  0  0  0  0  0  0
   22.4850   26.4750    0.9910 O   0  0  0  0  0  0  0  0  0  0  0  0
   20.4490   27.6550    1.7350 C   0  0  0  0  0  0  0  0  0  0  0  0
   19.9710   27.4750    0.4050 O   0  0  0  0  0  0  0  0  0  0  0  0
   19.9330   26.6130    2.7180 C   0  0  0  0  0  0  0  0  0  0  0  0
   28.0790   23.9830    6.2420 O   0  0  0  0  0  0  0  0  0  0  0  0
   15.2410   24.5400    3.2360 N   0  0  0  0  0  0  0  0  0  0  0  0
   16.3390   24.0970    2.6220 C   0  0  0  0  0  0  0  0  0  0  0  0
   17.5170   24.7080    2.4690 N   0  0  0  0  0  0  0  0  0  0  0  0
   17.5200   25.9020    3.0780 C   0  0  0  0  0  0  0  0  0  0  0  0
   16.4590   26.4950    3.7380 C   0  0  0  0  0  0  0  0  0  0  0  0
   15.2600   25.7680    3.8020 C   0  0  0  0  0  0  0  0  0  0  0  0
   14.1310   26.2380    4.3600 N   0  0  0  0  0  0  0  0  0  0  0  0
   16.8250   27.7390    4.2320 N   0  0  0  0  0  0  0  0  0  0  0  0
   18.0720   27.8670    3.8610 C   0  0  0  0  0  0  0  0  0  0  0  0
   18.5600   26.7940    3.1640 N   0  0  0  0  0  0  0  0  0  0  0  0
  1  2  1  0  0  0  0
  2  3  1  0  0  0  0
  2  5  1  0  0  0  0
  3  4  4  0  0  0  0
  3 16  4  0  0  0  0
  5  6  1  0  0  0  0
  6  7  1  0  0  0  0
  7  8  1  0  0  0  0
  8  9  1  0  0  0  0
  9 10  1  0  0  0  0
  9 11  1  0  0  0  0
 10 15  1  0  0  0  0
 11 12  1  0  0  0  0
 11 13  1  0  0  0  0
 13 14  1  0  0  0  0
 13 15  1  0  0  0  0
 15 26  1  0  0  0  0
 17 18  4  0  0  0  0
 17 22  4  0  0  0  0
 18 19  4  0  0  0  0
 19 20  4  0  0  0  0
 20 21  4  0  0  0  0
 20 26  4  0  0  0  0
 21 22  4  0  0  0  0
 21 24  4  0  0  0  0
 22 23  1  0  0  0  0
 24 25  4  0  0  0  0
 25 26  4  0  0  0  0
M  END
$$$$
