complex
  PyMOL3.0          3D                             0

 27 29  0  0  0  0  0  0  0  0999 V2000
  185.0690  102.8270  161.5080 P   0  0  0  0  0  0  0  0  0  0  0  0
  187.1490  103.5460  163.2700 P   0  0  0  0  0  0  0  0  0  0  0  0
  185.3920  100.5800  162.8220 C   0  0  0  0  0  0  0  0  0  0  0  0
  185.5170  101.2880  161.5930 O   0  0  0  0  0  0  0  0  0  0  0  0
  184.0830   99.8040  162.8130 C   0  0  0  0  0  0  0  0  0  0  0  0
  183.6620   99.5400  161.4770 O   0  0  0  0  0  0  0  0  0  0  0  0
  184.2170   98.4650  163.5150 C   0  0  0  0  0  0  0  0  0  0  0  0
  183.4780   98.4860  164.7360 O   0  0  0  0  0  0  0  0  0  0  0  0
  183.6080   97.4510  162.5740 C   0  0  0  0  0  0  0  0  0  0  0  0
  182.5780   96.7260  163.2460 O   0  0  0  0  0  0  0  0  0  0  0  0
  183.0220   98.2670  161.4380 C   0  0  0  0  0  0  0  0  0  0  0  0
  181.0960   95.0930  157.7660 N   0  0  0  0  0  0  0  0  0  0  0  0
  184.7280  103.1180  160.0690 O   0  5  0  0  0  0  0  0  0  0  0  0
  187.9900  102.3130  163.0680 O   0  0  0  0  0  0  0  0  0  0  0  0
  180.5460   95.5360  158.9080 C   0  0  0  0  0  0  0  0  0  0  0  0
  184.0220  103.0340  162.5710 O   0  0  0  0  0  0  0  0  0  0  0  0
  187.9060  104.8430  163.3850 O   0  5  0  0  0  0  0  0  0  0  0  0
  181.1670   96.3600  159.7650 N   0  0  0  0  0  0  0  0  0  0  0  0
  186.3720  103.6940  161.8740 O   0  0  0  0  0  0  0  0  0  0  0  0
  186.0720  103.3860  164.3110 O   0  0  0  0  0  0  0  0  0  0  0  0
  182.4200   96.7960  159.5150 C   0  0  0  0  0  0  0  0  0  0  0  0
  183.0920   96.3560  158.2890 C   0  0  0  0  0  0  0  0  0  0  0  0
  182.3420   95.4500  157.3950 C   0  0  0  0  0  0  0  0  0  0  0  0
  182.8890   94.9970  156.2430 N   0  0  0  0  0  0  0  0  0  0  0  0
  184.3060   96.9300  158.2900 N   0  0  0  0  0  0  0  0  0  0  0  0
  184.4030   97.6730  159.4200 C   0  0  0  0  0  0  0  0  0  0  0  0
  183.2780   97.5910  160.1470 N   0  0  0  0  0  0  0  0  0  0  0  0
  1  4  1  0  0  0  0
  1 13  1  0  0  0  0
  1 16  2  0  0  0  0
  1 19  1  0  0  0  0
  2 14  1  0  0  0  0
  2 17  1  0  0  0  0
  2 19  1  0  0  0  0
  2 20  2  0  0  0  0
  3  4  1  0  0  0  0
  3  5  1  0  0  0  0
  5  6  1  0  0  0  0
  5  7  1  0  0  0  0
  6 11  1  0  0  0  0
  7  8  1  0  0  0  0
  7  9  1  0  0  0  0
  9 10  1  0  0  0  0
  9 11  1  0  0  0  0
 11 27  1  0  0  0  0
 12 15  4  0  0  0  0
 12 23  4  0  0  0  0
 15 18  4  0  0  0  0
 18 21  4  0  0  0  0
 21 22  4  0  0  0  0
 21 27  4  0  0  0  0
 22 23  4  0  0  0  0
 22 25  4  0  0  0  0
 23 24  1  0  0  0  0
 25 26  4  0  0  0  0
 26 27  4  0  0  0  0
M  END
$$$$
