complex
  PyMOL3.0          3D                             0

  5  4  0  0  0  0  0  0  0  0999 V2000
   11.4940  -11.3410   24.9280 O   0  0  0  0  0  0  0  0  0  0  0  0
   13.7560  -12.2620   24.8450 O   0  0  0  0  0  0  0  0  0  0  0  0
   12.3590  -12.6780   26.8120 O   0  5  0  0  0  0  0  0  0  0  0  0
   13.2240  -10.4540   26.4440 O   0  0  0  0  0  0  0  0  0  0  0  0
   12.7060  -11.6780   25.7570 S   0  0  0  0  0  0  0  0  0  0  0  0
  1  5  1  0  0  0  0
  2  5  1  0  0  0  0
  3  5  1  0  0  0  0
  4  5  2  0  0  0  0
M  END
$$$$
