complex
  PyMOL3.0          3D                             0

 15 15  0  0  0  0  0  0  0  0999 V2000
   29.4280   86.5330   12.6580 C   0  0  0  0  0  0  0  0  0  0  0  0
   30.3800   87.5170   12.4160 O   0  0  0  0  0  0  0  0  0  0  0  0
   29.5520   86.0340   14.0930 C   0  0  0  0  0  0  0  0  0  0  0  0
   30.8820   85.5010   14.3460 N   0  0  0  0  0  0  0  0  0  0  0  0
   28.4870   84.9740   14.3710 C   0  0  0  0  0  0  0  0  0  0  0  0
   28.5210   84.6150   15.7480 O   0  0  0  0  0  0  0  0  0  0  0  0
   27.1000   85.4890   14.0040 C   0  0  0  0  0  0  0  0  0  0  0  0
   26.1620   84.4210   14.0730 O   0  0  0  0  0  0  0  0  0  0  0  0
   27.0890   86.0710   12.5900 C   0  0  0  0  0  0  0  0  0  0  0  0
   28.1270   87.0510   12.4460 O   0  0  0  0  0  0  0  0  0  0  0  0
   25.7930   86.7670   12.2450 C   0  0  0  0  0  0  0  0  0  0  0  0
   25.5910   87.9180   13.0540 O   0  0  0  0  0  0  0  0  0  0  0  0
   31.8430   86.1790   14.9850 C   0  0  0  0  0  0  0  0  0  0  0  0
   32.9550   85.6980   15.1800 O   0  0  0  0  0  0  0  0  0  0  0  0
   31.4830   87.5590   15.4520 C   0  0  0  0  0  0  0  0  0  0  0  0
  1  2  1  0  0  0  0
  1  3  1  0  0  0  0
  1 10  1  0  0  0  0
  3  4  1  0  0  0  0
  3  5  1  0  0  0  0
  4 13  1  0  0  0  0
  5  6  1  0  0  0  0
  5  7  1  0  0  0  0
  7  8  1  0  0  0  0
  7  9  1  0  0  0  0
  9 10  1  0  0  0  0
  9 11  1  0  0  0  0
 11 12  1  0  0  0  0
 13 14  2  0  0  0  0
 13 15  1  0  0  0  0
M  END
$$$$
