complex
  PyMOL3.0          3D                             0

 27 28  0  0  0  0  0  0  0  0999 V2000
    2.6140  -23.5550   14.0090 C   0  0  0  0  0  0  0  0  0  0  0  0
    5.4840  -25.9200   13.6530 C   0  0  0  0  0  0  0  0  0  0  0  0
    5.0210  -24.0600   16.9780 C   0  0  0  0  0  0  0  0  0  0  0  0
    3.2590  -30.0730   15.1890 C   0  0  0  0  0  0  0  0  0  0  0  0
    4.1850  -32.5660   17.2090 C   0  0  0  0  0  0  0  0  0  0  0  0
    4.9820  -31.7490   14.9940 C   0  0  0  0  0  0  0  0  0  0  0  0
    6.1140  -28.3990   17.3630 C   0  0  0  0  0  0  0  0  0  0  0  0
    5.2790  -27.5960   16.4760 C   0  0  0  0  0  0  0  0  0  0  0  0
    3.1350  -23.4820   15.4410 C   0  0  0  0  0  0  0  0  0  0  0  0
    4.4770  -26.6880   14.4930 C   0  0  0  0  0  0  0  0  0  0  0  0
    3.7950  -32.3270   15.7550 C   0  0  0  0  0  0  0  0  0  0  0  0
    4.4900  -30.4490   14.3760 C   0  0  0  0  0  0  0  0  0  0  0  0
    4.3370  -24.3980   15.6630 C   0  0  0  0  0  0  0  0  0  0  0  0
    3.9650  -25.8760   15.6840 C   0  0  0  0  0  0  0  0  0  0  0  0
    5.1690  -27.8220   15.1820 C   0  0  0  0  0  0  0  0  0  0  0  0
    3.3540  -35.2030   17.3530 N   0  0  0  0  0  0  0  0  0  0  0  0
    4.5650  -26.5380   16.8340 N   0  0  0  0  0  0  0  0  0  0  0  0
    2.6950  -31.3430   15.6800 N   0  0  0  0  0  0  0  0  0  0  0  0
    2.9830  -32.6790   18.0540 N   0  0  0  0  0  0  0  0  0  0  0  0
    6.2190  -24.2520   17.0970 O   0  0  0  0  0  0  0  0  0  0  0  0
    5.5840  -29.3300   18.1540 O   0  0  0  0  0  0  0  0  0  0  0  0
    1.1870  -34.0310   16.9780 O   0  0  0  0  0  0  0  0  0  0  0  0
    1.7930  -34.5470   19.1760 O   0  0  0  0  0  0  0  0  0  0  0  0
    7.3200  -28.2240   17.3720 O   0  0  0  0  0  0  0  0  0  0  0  0
    2.0830  -23.8300   16.3480 O   0  0  0  0  0  0  0  0  0  0  0  0
    5.7420  -29.2010   14.4430 S   0  0  0  0  0  0  0  0  0  0  0  0
    2.2880  -34.1250   17.8960 S   0  0  0  0  0  0  0  0  0  0  0  0
  1  9  1  0  0  0  0
  2 10  1  0  0  0  0
  3 13  1  0  0  0  0
  3 20  1  0  0  0  0
  4 12  1  0  0  0  0
  4 18  1  0  0  0  0
  5 11  1  0  0  0  0
  5 19  1  0  0  0  0
  6 11  1  0  0  0  0
  6 12  1  0  0  0  0
  7  8  1  0  0  0  0
  7 21  4  0  0  0  0
  7 24  4  0  0  0  0
  8 15  1  0  0  0  0
  8 17  1  0  0  0  0
  9 13  1  0  0  0  0
  9 25  1  0  0  0  0
 10 14  1  0  0  0  0
 10 15  1  0  0  0  0
 11 18  1  0  0  0  0
 12 26  1  0  0  0  0
 13 14  1  0  0  0  0
 14 17  1  0  0  0  0
 15 26  1  0  0  0  0
 16 27  1  0  0  0  0
 19 27  1  0  0  0  0
 22 27  2  0  0  0  0
 23 27  2  0  0  0  0
M  END
$$$$
