complex
  PyMOL3.0          3D                             0

  5  4  0  0  0  0  0  0  0  0999 V2000
   13.1170   23.0680   49.5320 O   0  0  0  0  0  0  0  0  0  0  0  0
   11.3860   24.2000   50.7140 O   0  0  0  0  0  0  0  0  0  0  0  0
   13.1350   23.1060   51.9170 O   0  5  0  0  0  0  0  0  0  0  0  0
   11.5000   21.8140   50.7560 O   0  0  0  0  0  0  0  0  0  0  0  0
   12.2840   23.0470   50.7300 S   0  0  0  0  0  0  0  0  0  0  0  0
  1  5  1  0  0  0  0
  2  5  1  0  0  0  0
  3  5  1  0  0  0  0
  4  5  2  0  0  0  0
M  END
$$$$
