complex
  PyMOL3.0          3D                             0

  4  3  0  0  0  0  0  0  0  0999 V2000
   54.7440   28.1990   79.8370 C   0  0  0  0  0  0  0  0  0  0  0  0
   56.0260   28.5140   79.2790 O   0  0  0  0  0  0  0  0  0  0  0  0
   54.7220   26.7450   80.2950 C   0  0  0  0  0  0  0  0  0  0  0  0
   53.3880   26.2280   80.2030 O   0  0  0  0  0  0  0  0  0  0  0  0
  1  2  1  0  0  0  0
  1  3  1  0  0  0  0
  3  4  1  0  0  0  0
M  END
$$$$
