complex
  PyMOL3.0          3D                             0

 27 29  0  0  0  0  0  0  0  0999 V2000
  184.1970  197.7190  117.5420 P   0  0  0  0  0  0  0  0  0  0  0  0
  186.7640  197.0810  116.7030 P   0  0  0  0  0  0  0  0  0  0  0  0
  183.4770  198.7440  115.2150 C   0  0  0  0  0  0  0  0  0  0  0  0
  183.4830  198.8360  116.6350 O   0  0  0  0  0  0  0  0  0  0  0  0
  182.1260  199.2400  114.7150 C   0  0  0  0  0  0  0  0  0  0  0  0
  181.7840  200.4720  115.3470 O   0  0  0  0  0  0  0  0  0  0  0  0
  182.1060  199.4920  113.2170 C   0  0  0  0  0  0  0  0  0  0  0  0
  181.2360  198.5510  112.5870 O   0  0  0  0  0  0  0  0  0  0  0  0
  181.5360  200.8810  113.0400 C   0  0  0  0  0  0  0  0  0  0  0  0
  180.4200  200.8340  112.1510 O   0  0  0  0  0  0  0  0  0  0  0  0
  181.0850  201.3060  114.4240 C   0  0  0  0  0  0  0  0  0  0  0  0
  179.5190  206.2880  114.0730 N   0  0  0  0  0  0  0  0  0  0  0  0
  183.9910  196.3760  116.8900 O   0  5  0  0  0  0  0  0  0  0  0  0
  186.2220  197.0690  115.2970 O   0  0  0  0  0  0  0  0  0  0  0  0
  178.8870  205.1550  113.7270 C   0  0  0  0  0  0  0  0  0  0  0  0
  183.7510  197.9340  118.9660 O   0  0  0  0  0  0  0  0  0  0  0  0
  188.1070  197.7480  116.8590 O   0  5  0  0  0  0  0  0  0  0  0  0
  179.4160  203.9300  113.8760 N   0  0  0  0  0  0  0  0  0  0  0  0
  185.7630  198.0640  117.4830 O   0  0  0  0  0  0  0  0  0  0  0  0
  186.6300  195.7700  117.4400 O   0  0  0  0  0  0  0  0  0  0  0  0
  180.6500  203.7700  114.3970 C   0  0  0  0  0  0  0  0  0  0  0  0
  181.4050  204.9600  114.8000 C   0  0  0  0  0  0  0  0  0  0  0  0
  180.7570  206.2720  114.6040 C   0  0  0  0  0  0  0  0  0  0  0  0
  181.3850  207.4190  114.9510 N   0  0  0  0  0  0  0  0  0  0  0  0
  182.5810  204.5260  115.2790 N   0  0  0  0  0  0  0  0  0  0  0  0
  182.5810  203.1730  115.1910 C   0  0  0  0  0  0  0  0  0  0  0  0
  181.4300  202.7250  114.6630 N   0  0  0  0  0  0  0  0  0  0  0  0
  1  4  1  0  0  0  0
  1 13  1  0  0  0  0
  1 16  2  0  0  0  0
  1 19  1  0  0  0  0
  2 14  1  0  0  0  0
  2 17  1  0  0  0  0
  2 19  1  0  0  0  0
  2 20  2  0  0  0  0
  3  4  1  0  0  0  0
  3  5  1  0  0  0  0
  5  6  1  0  0  0  0
  5  7  1  0  0  0  0
  6 11  1  0  0  0  0
  7  8  1  0  0  0  0
  7  9  1  0  0  0  0
  9 10  1  0  0  0  0
  9 11  1  0  0  0  0
 11 27  1  0  0  0  0
 12 15  4  0  0  0  0
 12 23  4  0  0  0  0
 15 18  4  0  0  0  0
 18 21  4  0  0  0  0
 21 22  4  0  0  0  0
 21 27  4  0  0  0  0
 22 23  4  0  0  0  0
 22 25  4  0  0  0  0
 23 24  1  0  0  0  0
 25 26  4  0  0  0  0
 26 27  4  0  0  0  0
M  END
$$$$
