complex
  PyMOL3.0          3D                             0

 27 29  0  0  0  0  0  0  0  0999 V2000
  139.4450  172.8380  104.8730 P   0  0  0  0  0  0  0  0  0  0  0  0
  137.1470  172.5740  106.4060 P   0  0  0  0  0  0  0  0  0  0  0  0
  140.2810  173.9610  102.6760 C   0  0  0  0  0  0  0  0  0  0  0  0
  139.7110  172.8130  103.2920 O   0  0  0  0  0  0  0  0  0  0  0  0
  141.6520  173.6280  102.1060 C   0  0  0  0  0  0  0  0  0  0  0  0
  141.6210  172.4650  101.2770 O   0  0  0  0  0  0  0  0  0  0  0  0
  142.1740  174.7610  101.2380 C   0  0  0  0  0  0  0  0  0  0  0  0
  143.2420  175.4340  101.9050 O   0  0  0  0  0  0  0  0  0  0  0  0
  142.7010  174.1000   99.9830 C   0  0  0  0  0  0  0  0  0  0  0  0
  144.0540  174.4910   99.7560 O   0  0  0  0  0  0  0  0  0  0  0  0
  142.6260  172.6150  100.2740 C   0  0  0  0  0  0  0  0  0  0  0  0
  144.5820  170.5200   95.9150 N   0  0  0  0  0  0  0  0  0  0  0  0
  139.5910  174.2620  105.3430 O   0  5  0  0  0  0  0  0  0  0  0  0
  135.7710  172.0120  106.1510 O   0  0  0  0  0  0  0  0  0  0  0  0
  145.1870  171.2070   96.8980 C   0  0  0  0  0  0  0  0  0  0  0  0
  140.2960  171.7660  105.4990 O   0  0  0  0  0  0  0  0  0  0  0  0
  137.1740  174.0580  106.6730 O   0  5  0  0  0  0  0  0  0  0  0  0
  144.5410  171.6900   97.9720 N   0  0  0  0  0  0  0  0  0  0  0  0
  137.8990  172.4250  104.9940 O   0  0  0  0  0  0  0  0  0  0  0  0
  137.9930  171.7600  107.3510 O   0  0  0  0  0  0  0  0  0  0  0  0
  143.2100  171.5060   98.1230 C   0  0  0  0  0  0  0  0  0  0  0  0
  142.4760  170.7670   97.0920 C   0  0  0  0  0  0  0  0  0  0  0  0
  143.2570  170.2660   95.9400 C   0  0  0  0  0  0  0  0  0  0  0  0
  142.6580  169.5730   94.9430 N   0  0  0  0  0  0  0  0  0  0  0  0
  141.1910  170.7310   97.4870 N   0  0  0  0  0  0  0  0  0  0  0  0
  141.1090  171.3920   98.6690 C   0  0  0  0  0  0  0  0  0  0  0  0
  142.3130  171.8550   99.0430 N   0  0  0  0  0  0  0  0  0  0  0  0
  1  4  1  0  0  0  0
  1 13  1  0  0  0  0
  1 16  2  0  0  0  0
  1 19  1  0  0  0  0
  2 14  1  0  0  0  0
  2 17  1  0  0  0  0
  2 19  1  0  0  0  0
  2 20  2  0  0  0  0
  3  4  1  0  0  0  0
  3  5  1  0  0  0  0
  5  6  1  0  0  0  0
  5  7  1  0  0  0  0
  6 11  1  0  0  0  0
  7  8  1  0  0  0  0
  7  9  1  0  0  0  0
  9 10  1  0  0  0  0
  9 11  1  0  0  0  0
 11 27  1  0  0  0  0
 12 15  4  0  0  0  0
 12 23  4  0  0  0  0
 15 18  4  0  0  0  0
 18 21  4  0  0  0  0
 21 22  4  0  0  0  0
 21 27  4  0  0  0  0
 22 23  4  0  0  0  0
 22 25  4  0  0  0  0
 23 24  1  0  0  0  0
 25 26  4  0  0  0  0
 26 27  4  0  0  0  0
M  END
$$$$
