complex
  PyMOL3.0          3D                             0

  8 12  0  0  0  0  0  0  0  0999 V2000
  -68.0930  -35.1020  -10.8310 S   0  0  0  0  0  0  0  0  0  0  0  0
  -65.9300  -33.0770   -8.7060 S   0  0  0  0  0  0  0  0  0  0  0  0
  -65.6390  -36.6810   -8.8260 S   0  0  0  0  0  0  0  0  0  0  0  0
  -64.6130  -34.5810  -11.5990 S   0  0  0  0  0  0  0  0  0  0  0  0
  -64.5490  -34.7240   -9.3530 Fe  0  0  0  0  0  0  0  0  0  0  0  0
  -66.1610  -36.2030  -11.0030 Fe  0  0  0  0  0  0  0  0  0  0  0  0
  -66.4620  -33.5210  -10.8960 Fe  0  0  0  0  0  0  0  0  0  0  0  0
  -67.1500  -35.0260   -8.7090 Fe  0  0  0  0  0  0  0  0  0  0  0  0
  1  6  1  0  0  0  0
  1  7  1  0  0  0  0
  1  8  1  0  0  0  0
  2  5  1  0  0  0  0
  2  7  1  0  0  0  0
  2  8  1  0  0  0  0
  3  5  1  0  0  0  0
  3  6  1  0  0  0  0
  3  8  1  0  0  0  0
  4  5  1  0  0  0  0
  4  6  1  0  0  0  0
  4  7  1  0  0  0  0
M  END
$$$$
