complex
  PyMOL3.0          3D                             0

  7  6  0  0  0  0  0  0  0  0999 V2000
   -4.7520    5.1310   -4.3370 C   0  0  0  0  0  0  0  0  0  0  0  0
   -5.9500    5.8450   -4.0760 O   0  0  0  0  0  0  0  0  0  0  0  0
   -3.5640    6.0440   -4.4020 C   0  0  0  0  0  0  0  0  0  0  0  0
   -3.6790    6.9390   -5.5050 O   0  0  0  0  0  0  0  0  0  0  0  0
   -2.4780    7.6660   -5.7330 C   0  0  0  0  0  0  0  0  0  0  0  0
   -2.5060    8.3080   -7.0870 C   0  0  0  0  0  0  0  0  0  0  0  0
   -3.5000    9.3120   -7.1670 O   0  0  0  0  0  0  0  0  0  0  0  0
  1  2  1  0  0  0  0
  1  3  1  0  0  0  0
  3  4  1  0  0  0  0
  4  5  1  0  0  0  0
  5  6  1  0  0  0  0
  6  7  1  0  0  0  0
M  END
$$$$
