complex
  PyMOL3.0          3D                             0

  5  4  0  0  0  0  0  0  0  0999 V2000
  -18.6040  -46.0660  -35.2910 O   0  0  0  0  0  0  0  0  0  0  0  0
  -19.9310  -47.3790  -33.8150 O   0  0  0  0  0  0  0  0  0  0  0  0
  -18.1530  -46.0760  -32.9640 O   0  5  0  0  0  0  0  0  0  0  0  0
  -20.1100  -45.0390  -33.7820 O   0  0  0  0  0  0  0  0  0  0  0  0
  -19.2070  -46.1540  -33.9640 S   0  0  0  0  0  0  0  0  0  0  0  0
  1  5  1  0  0  0  0
  2  5  1  0  0  0  0
  3  5  1  0  0  0  0
  4  5  2  0  0  0  0
M  END
$$$$
