complex
  PyMOL3.0          3D                             0

 46 49  0  0  0  0  0  0  0  0999 V2000
  402.5300  244.2060  312.5200 Cl  0  0  0  0  0  0  0  0  0  0  0  0
  405.9160  238.7230  306.2230 N   0  0  0  0  0  0  0  0  0  0  0  0
  405.0370  238.1150  308.4360 O   0  0  0  0  0  0  0  0  0  0  0  0
  405.4600  240.0390  304.2040 C   0  0  0  0  0  0  0  0  0  0  0  0
  403.7320  240.9490  307.3660 N   0  0  0  0  0  0  0  0  0  0  0  0
  401.4190  240.7970  308.1250 O   0  0  0  0  0  0  0  0  0  0  0  0
  405.7130  238.6450  304.7830 C   0  0  0  0  0  0  0  0  0  0  0  0
  401.1430  242.6150  302.3300 O   0  0  0  0  0  0  0  0  0  0  0  0
  405.3380  239.1150  307.5000 C   0  0  0  0  0  0  0  0  0  0  0  0
  400.8330  240.4970  301.6050 O   0  0  0  0  0  0  0  0  0  0  0  0
  405.0530  240.5800  307.8510 C   0  0  0  0  0  0  0  0  0  0  0  0
  403.6350  241.3920  303.0910 O   0  0  0  0  0  0  0  0  0  0  0  0
  402.3350  241.3210  307.2140 C   0  0  0  0  0  0  0  0  0  0  0  0
  403.1510  239.5490  304.3030 O   0  0  0  0  0  0  0  0  0  0  0  0
  401.8300  242.2950  306.1520 C   0  0  0  0  0  0  0  0  0  0  0  0
  398.3170  244.0270  300.1050 O   0  0  0  0  0  0  0  0  0  0  0  0
  400.7460  242.0400  305.4460 C   0  0  0  0  0  0  0  0  0  0  0  0
  404.0620  246.2360  310.9210 O   0  0  0  0  0  0  0  0  0  0  0  0
  400.2820  243.0810  304.4250 C   0  0  0  0  0  0  0  0  0  0  0  0
  399.9290  242.5890  303.0260 C   0  0  0  0  0  0  0  0  0  0  0  0
  401.5910  241.3640  301.8940 C   0  0  0  0  0  0  0  0  0  0  0  0
  403.1010  241.1650  301.8080 C   0  0  0  0  0  0  0  0  0  0  0  0
  403.9830  240.2810  303.8740 C   0  0  0  0  0  0  0  0  0  0  0  0
  403.5490  239.8460  301.1760 C   0  0  0  0  0  0  0  0  0  0  0  0
  404.3150  240.0950  299.8750 C   0  0  0  0  0  0  0  0  0  0  0  0
  404.8260  241.5330  299.7630 C   0  0  0  0  0  0  0  0  0  0  0  0
  403.5270  239.6560  298.6430 C   0  0  0  0  0  0  0  0  0  0  0  0
  399.0000  243.5870  302.3180 C   0  0  0  0  0  0  0  0  0  0  0  0
  397.9030  244.1430  303.2170 C   0  0  0  0  0  0  0  0  0  0  0  0
  398.4140  243.0490  301.0180 C   0  0  0  0  0  0  0  0  0  0  0  0
  399.4470  243.2760  299.8360 C   0  0  0  0  0  0  0  0  0  0  0  0
  400.0020  242.9720  298.4490 C   0  0  0  0  0  0  0  0  0  0  0  0
  400.2440  243.9970  297.5510 C   0  0  0  0  0  0  0  0  0  0  0  0
  400.7460  243.6940  296.2860 C   0  0  0  0  0  0  0  0  0  0  0  0
  400.9970  242.3640  295.9400 C   0  0  0  0  0  0  0  0  0  0  0  0
  400.7460  241.3500  296.8530 C   0  0  0  0  0  0  0  0  0  0  0  0
  400.2510  241.6640  298.0980 C   0  0  0  0  0  0  0  0  0  0  0  0
  405.1320  240.8170  309.3650 C   0  0  0  0  0  0  0  0  0  0  0  0
  404.8370  242.2620  309.7870 C   0  0  0  0  0  0  0  0  0  0  0  0
  403.9370  242.5450  310.8220 C   0  0  0  0  0  0  0  0  0  0  0  0
  403.6810  243.8630  311.1980 C   0  0  0  0  0  0  0  0  0  0  0  0
  404.3180  244.9060  310.5510 C   0  0  0  0  0  0  0  0  0  0  0  0
  405.2020  244.6430  309.5310 C   0  0  0  0  0  0  0  0  0  0  0  0
  405.4590  243.3370  309.1550 C   0  0  0  0  0  0  0  0  0  0  0  0
  403.8050  246.4050  312.2870 C   0  0  0  0  0  0  0  0  0  0  0  0
  406.4100  240.4060  303.0620 C   0  0  0  0  0  0  0  0  0  0  0  0
  1 41  1  0  0  0  0
  2  7  1  0  0  0  0
  2  9  1  0  0  0  0
  3  9  1  0  0  0  0
  4  7  1  0  0  0  0
  4 23  1  0  0  0  0
  4 46  1  0  0  0  0
  5 11  1  0  0  0  0
  5 13  1  0  0  0  0
  6 13  1  0  0  0  0
  8 20  1  0  0  0  0
  8 21  1  0  0  0  0
  9 11  1  0  0  0  0
 10 21  2  0  0  0  0
 11 38  1  0  0  0  0
 12 22  1  0  0  0  0
 12 23  1  0  0  0  0
 13 15  1  0  0  0  0
 14 23  2  0  0  0  0
 15 17  1  0  0  0  0
 16 30  1  0  0  0  0
 16 31  1  0  0  0  0
 17 19  1  0  0  0  0
 18 42  1  0  0  0  0
 18 45  1  0  0  0  0
 19 20  1  0  0  0  0
 20 28  1  0  0  0  0
 21 22  1  0  0  0  0
 22 24  1  0  0  0  0
 24 25  1  0  0  0  0
 25 26  1  0  0  0  0
 25 27  1  0  0  0  0
 28 29  1  0  0  0  0
 28 30  1  0  0  0  0
 30 31  1  0  0  0  0
 31 32  1  0  0  0  0
 32 33  4  0  0  0  0
 32 37  4  0  0  0  0
 33 34  4  0  0  0  0
 34 35  4  0  0  0  0
 35 36  4  0  0  0  0
 36 37  4  0  0  0  0
 38 39  1  0  0  0  0
 39 40  4  0  0  0  0
 39 44  4  0  0  0  0
 40 41  4  0  0  0  0
 41 42  4  0  0  0  0
 42 43  4  0  0  0  0
 43 44  4  0  0  0  0
M  END
$$$$
