complex
  PyMOL3.0          3D                             0

  4  3  0  0  0  0  0  0  0  0999 V2000
  -15.1740   18.9450    7.5390 C   0  0  0  0  0  0  0  0  0  0  0  0
  -14.0130   19.2080    8.3440 O   0  0  0  0  0  0  0  0  0  0  0  0
  -16.3980   18.9450    8.4510 C   0  0  0  0  0  0  0  0  0  0  0  0
  -16.2390   17.8900    9.4100 O   0  0  0  0  0  0  0  0  0  0  0  0
  1  2  1  0  0  0  0
  1  3  1  0  0  0  0
  3  4  1  0  0  0  0
M  END
$$$$
