complex
  PyMOL3.0          3D                             0

 11 11  0  0  0  0  0  0  0  0999 V2000
  184.1540  141.7810  237.3780 C   0  0  0  0  0  0  0  0  0  0  0  0
  184.0820  143.4240  237.4330 C   0  0  0  0  0  0  0  0  0  0  0  0
  183.9720  144.0330  238.7150 O   0  0  0  0  0  0  0  0  0  0  0  0
  185.3290  144.0570  236.7380 C   0  0  0  0  0  0  0  0  0  0  0  0
  186.3680  144.3350  237.6740 O   0  0  0  0  0  0  0  0  0  0  0  0
  185.8990  143.2560  235.5020 C   0  0  0  0  0  0  0  0  0  0  0  0
  185.2920  143.7130  234.3010 O   0  0  0  0  0  0  0  0  0  0  0  0
  185.7070  141.7240  235.6350 C   0  0  0  0  0  0  0  0  0  0  0  0
  185.5070  141.4110  237.0180 O   0  0  0  0  0  0  0  0  0  0  0  0
  186.8570  140.9020  235.0740 C   0  0  0  0  0  0  0  0  0  0  0  0
  187.9590  141.0030  235.9580 O   0  0  0  0  0  0  0  0  0  0  0  0
  1  2  1  0  0  0  0
  1  9  1  0  0  0  0
  2  3  1  0  0  0  0
  2  4  1  0  0  0  0
  4  5  1  0  0  0  0
  4  6  1  0  0  0  0
  6  7  1  0  0  0  0
  6  8  1  0  0  0  0
  8  9  1  0  0  0  0
  8 10  1  0  0  0  0
 10 11  1  0  0  0  0
M  END
$$$$
