complex
  PyMOL3.0          3D                             0

 31 33  0  0  0  0  0  0  0  0999 V2000
  132.8440  175.7430  167.6390 P   0  0  0  0  0  0  0  0  0  0  0  0
  134.5200  174.8470  169.5380 P   0  0  0  0  0  0  0  0  0  0  0  0
  136.7790  175.2230  171.0700 P   0  0  0  0  0  0  0  0  0  0  0  0
  132.0520  174.0170  165.8190 C   0  0  0  0  0  0  0  0  0  0  0  0
  132.6190  175.3000  166.1410 O   0  0  0  0  0  0  0  0  0  0  0  0
  130.6790  174.2390  165.2420 C   0  0  0  0  0  0  0  0  0  0  0  0
  130.4780  173.3590  164.1140 O   0  0  0  0  0  0  0  0  0  0  0  0
  129.5150  173.9750  166.1930 C   0  0  0  0  0  0  0  0  0  0  0  0
  129.1670  175.1680  166.8860 O   0  0  0  0  0  0  0  0  0  0  0  0
  128.4170  173.4870  165.2500 C   0  0  0  0  0  0  0  0  0  0  0  0
  127.7150  174.5590  164.6340 O   0  0  0  0  0  0  0  0  0  0  0  0
  129.2310  172.7020  164.2240 C   0  0  0  0  0  0  0  0  0  0  0  0
  127.6270  167.8030  164.0960 N   0  0  0  0  0  0  0  0  0  0  0  0
  131.7530  175.1550  168.4470 O   0  5  0  0  0  0  0  0  0  0  0  0
  135.1030  173.4820  169.6980 O   0  0  0  0  0  0  0  0  0  0  0  0
  137.9740  176.1130  171.1930 O   0  0  0  0  0  0  0  0  0  0  0  0
  127.0980  168.9220  163.5960 C   0  0  0  0  0  0  0  0  0  0  0  0
  132.9820  177.2630  167.7650 O   0  0  0  0  0  0  0  0  0  0  0  0
  133.1630  174.9340  170.2890 O   0  0  0  0  0  0  0  0  0  0  0  0
  137.1960  173.8890  170.3460 O   0  0  0  0  0  0  0  0  0  0  0  0
  127.5660  170.1720  163.6630 N   0  0  0  0  0  0  0  0  0  0  0  0
  135.5740  175.9900  170.1620 N   0  0  0  0  0  0  0  0  0  0  0  0
  134.2450  175.1240  168.0360 O   0  0  0  0  0  0  0  0  0  0  0  0
  136.2190  174.8980  172.5140 O   0  0  0  0  0  0  0  0  0  0  0  0
  128.7210  170.2120  164.3420 C   0  0  0  0  0  0  0  0  0  0  0  0
  129.3830  169.1570  164.9130 C   0  0  0  0  0  0  0  0  0  0  0  0
  128.7950  167.8770  164.7750 C   0  0  0  0  0  0  0  0  0  0  0  0
  129.3160  166.7600  165.2760 N   0  0  0  0  0  0  0  0  0  0  0  0
  130.5570  169.5670  165.5380 N   0  0  0  0  0  0  0  0  0  0  0  0
  130.5550  170.8620  165.3210 C   0  0  0  0  0  0  0  0  0  0  0  0
  129.4870  171.3280  164.6090 N   0  0  0  0  0  0  0  0  0  0  0  0
  1  5  1  0  0  0  0
  1 14  1  0  0  0  0
  1 18  2  0  0  0  0
  1 23  1  0  0  0  0
  2 15  2  0  0  0  0
  2 19  2  0  0  0  0
  2 22  1  0  0  0  0
  2 23  1  0  0  0  0
  3 16  1  0  0  0  0
  3 20  2  0  0  0  0
  3 22  1  0  0  0  0
  3 24  2  0  0  0  0
  4  5  1  0  0  0  0
  4  6  1  0  0  0  0
  6  7  1  0  0  0  0
  6  8  1  0  0  0  0
  7 12  1  0  0  0  0
  8  9  1  0  0  0  0
  8 10  1  0  0  0  0
 10 11  1  0  0  0  0
 10 12  1  0  0  0  0
 12 31  1  0  0  0  0
 13 17  4  0  0  0  0
 13 27  4  0  0  0  0
 17 21  4  0  0  0  0
 21 25  4  0  0  0  0
 25 26  4  0  0  0  0
 25 31  4  0  0  0  0
 26 27  4  0  0  0  0
 26 29  4  0  0  0  0
 27 28  1  0  0  0  0
 29 30  4  0  0  0  0
 30 31  4  0  0  0  0
M  END
$$$$
