complex
  PyMOL3.0          3D                             0

  6  5  0  0  0  0  0  0  0  0999 V2000
  -30.4200  -56.7100  -49.5620 C   0  0  0  0  0  0  0  0  0  0  0  0
  -31.4280  -56.2080  -50.4350 O   0  0  0  0  0  0  0  0  0  0  0  0
  -29.0360  -56.5770  -50.1620 C   0  0  0  0  0  0  0  0  0  0  0  0
  -29.0320  -57.0170  -51.5190 O   0  0  0  0  0  0  0  0  0  0  0  0
  -27.9620  -57.2880  -49.3680 C   0  0  0  0  0  0  0  0  0  0  0  0
  -27.0410  -57.9680  -50.2160 O   0  0  0  0  0  0  0  0  0  0  0  0
  1  2  1  0  0  0  0
  1  3  1  0  0  0  0
  3  4  1  0  0  0  0
  3  5  1  0  0  0  0
  5  6  1  0  0  0  0
M  END
$$$$
