complex
  PyMOL3.0          3D                             0

  4  3  0  0  0  0  0  0  0  0999 V2000
   65.5120   65.0440  118.7910 C   0  0  0  0  0  0  0  0  0  0  0  0
   66.5820   64.8810  119.6950 O   0  0  0  0  0  0  0  0  0  0  0  0
   64.1990   65.1840  119.4600 C   0  0  0  0  0  0  0  0  0  0  0  0
   64.2670   65.9030  120.6730 O   0  0  0  0  0  0  0  0  0  0  0  0
  1  2  1  0  0  0  0
  1  3  1  0  0  0  0
  3  4  1  0  0  0  0
M  END
$$$$
