complex
  PyMOL3.0          3D                             0

  6  5  0  0  0  0  0  0  0  0999 V2000
  -40.9320   -6.3530   -5.7620 C   0  0  0  0  0  0  0  0  0  0  0  0
  -40.2200   -6.7870   -4.6660 O   0  0  0  0  0  0  0  0  0  0  0  0
  -42.4090   -6.1960   -5.2600 C   0  0  0  0  0  0  0  0  0  0  0  0
  -42.5870   -4.9720   -4.6010 O   0  0  0  0  0  0  0  0  0  0  0  0
  -43.2690   -6.3110   -6.5730 C   0  0  0  0  0  0  0  0  0  0  0  0
  -44.6190   -5.9130   -6.2790 O   0  0  0  0  0  0  0  0  0  0  0  0
  1  2  1  0  0  0  0
  1  3  1  0  0  0  0
  3  4  1  0  0  0  0
  3  5  1  0  0  0  0
  5  6  1  0  0  0  0
M  END
$$$$
