complex
  PyMOL3.0          3D                             0

 28 27  0  0  0  0  0  0  0  0999 V2000
  -63.5960   -7.7160   32.7090 N   0  0  0  0  0  0  0  0  0  0  0  0
  -64.6930   -7.1140   31.9180 C   0  0  0  0  0  0  0  0  0  0  0  0
  -65.7190   -6.4820   32.8820 C   0  0  0  0  0  0  0  0  0  0  0  0
  -65.3360   -8.2590   31.1500 C   0  0  0  0  0  0  0  0  0  0  0  0
  -64.1480   -6.0190   30.9720 C   0  0  0  0  0  0  0  0  0  0  0  0
  -65.0090   -5.5150   33.8370 C   0  0  0  0  0  0  0  0  0  0  0  0
  -64.7340   -4.2740   33.1320 O   0  0  0  0  0  0  0  0  0  0  0  0
  -65.7290   -9.4020   32.0840 C   0  0  0  0  0  0  0  0  0  0  0  0
  -66.6140  -10.3140   31.4150 O   0  0  0  0  0  0  0  0  0  0  0  0
  -62.7330   -5.6310   31.4110 C   0  0  0  0  0  0  0  0  0  0  0  0
  -62.3660   -4.3190   30.9480 O   0  0  0  0  0  0  0  0  0  0  0  0
  -63.0940   -8.4170   32.1480 H   0  0  0  0  0  0  0  0  0  0  0  0
  -63.9710   -8.1510   33.5700 H   0  0  0  0  0  0  0  0  0  0  0  0
  -65.1450   -3.5370   33.6030 H   0  0  0  0  0  0  0  0  0  0  0  0
  -66.9620  -10.9530   32.0520 H   0  0  0  0  0  0  0  0  0  0  0  0
  -61.4160   -4.1870   31.0730 H   0  0  0  0  0  0  0  0  0  0  0  0
  -66.4800   -5.9460   32.3110 H   0  0  0  0  0  0  0  0  0  0  0  0
  -66.2190   -7.2660   33.4540 H   0  0  0  0  0  0  0  0  0  0  0  0
  -64.6360   -8.6300   30.3980 H   0  0  0  0  0  0  0  0  0  0  0  0
  -66.2250   -7.8940   30.6310 H   0  0  0  0  0  0  0  0  0  0  0  0
  -64.8000   -5.1430   31.0020 H   0  0  0  0  0  0  0  0  0  0  0  0
  -64.1310   -6.3890   29.9450 H   0  0  0  0  0  0  0  0  0  0  0  0
  -64.0760   -5.9580   34.1920 H   0  0  0  0  0  0  0  0  0  0  0  0
  -65.6400   -5.3190   34.7060 H   0  0  0  0  0  0  0  0  0  0  0  0
  -66.2200   -8.9980   32.9720 H   0  0  0  0  0  0  0  0  0  0  0  0
  -64.8320   -9.9340   32.4100 H   0  0  0  0  0  0  0  0  0  0  0  0
  -62.0220   -6.3620   31.0190 H   0  0  0  0  0  0  0  0  0  0  0  0
  -62.6750   -5.6570   32.5010 H   0  0  0  0  0  0  0  0  0  0  0  0
  1  2  1  0  0  0  0
  1 12  1  0  0  0  0
  1 13  1  0  0  0  0
  2  3  1  0  0  0  0
  2  4  1  0  0  0  0
  2  5  1  0  0  0  0
  3  6  1  0  0  0  0
  3 17  1  0  0  0  0
  3 18  1  0  0  0  0
  4  8  1  0  0  0  0
  4 19  1  0  0  0  0
  4 20  1  0  0  0  0
  5 10  1  0  0  0  0
  5 21  1  0  0  0  0
  5 22  1  0  0  0  0
  6  7  1  0  0  0  0
  6 23  1  0  0  0  0
  6 24  1  0  0  0  0
  7 14  1  0  0  0  0
  8  9  1  0  0  0  0
  8 25  1  0  0  0  0
  8 26  1  0  0  0  0
  9 15  1  0  0  0  0
 10 11  1  0  0  0  0
 10 27  1  0  0  0  0
 10 28  1  0  0  0  0
 11 16  1  0  0  0  0
M  END
$$$$
