complex
  PyMOL3.0          3D                             0

 12 11  0  0  0  0  0  0  0  0999 V2000
   -2.7850   24.7710   25.4360 N   0  0  0  0  0  0  0  0  0  0  0  0
   -3.1750   26.0410   25.9970 C   0  0  0  0  0  0  0  0  0  0  0  0
   -1.9930   26.7640   26.6180 C   0  0  0  0  0  0  0  0  0  0  0  0
   -1.6790   27.9250   26.3360 O   0  0  0  0  0  0  0  0  0  0  0  0
   -4.2700   25.8650   27.0340 C   0  0  0  0  0  0  0  0  0  0  0  0
   -4.7580   27.3130   27.8890 S   0  0  0  0  0  0  0  0  0  0  0  0
   -5.6750   28.4920   26.4460 S   0  0  0  0  0  0  0  0  0  0  0  0
   -3.2460   24.0070   25.8880 H   0  0  0  0  0  0  0  0  0  0  0  0
   -3.5020   26.7320   25.1590 H   0  0  0  0  0  0  0  0  0  0  0  0
   -3.9140   25.1140   27.7820 H   0  0  0  0  0  0  0  0  0  0  0  0
   -5.1650   25.4390   26.5160 H   0  0  0  0  0  0  0  0  0  0  0  0
   -5.9750   29.5530   27.1870 H   0  0  0  0  0  0  0  0  0  0  0  0
  1  2  1  0  0  0  0
  1  8  1  0  0  0  0
  2  3  1  0  0  0  0
  2  5  1  0  0  0  0
  2  9  1  0  0  0  0
  3  4  2  0  0  0  0
  5  6  1  0  0  0  0
  5 10  1  0  0  0  0
  5 11  1  0  0  0  0
  6  7  1  0  0  0  0
  7 12  1  0  0  0  0
M  END
$$$$
