complex
  PyMOL3.0          3D                             0

 13 12  0  0  0  0  0  0  0  0999 V2000
   29.9400   -5.1920    1.7770 N   0  0  0  0  0  0  0  0  0  0  0  0
   29.3620   -6.0100    0.7420 C   0  0  0  0  0  0  0  0  0  0  0  0
   27.8770   -6.1570    0.9250 C   0  0  0  0  0  0  0  0  0  0  0  0
   27.0870   -6.6370    0.1210 O   0  0  0  0  0  0  0  0  0  0  0  0
   29.9290   -7.4280    0.6500 C   0  0  0  0  0  0  0  0  0  0  0  0
   29.9300   -8.1720    1.9770 C   0  0  0  0  0  0  0  0  0  0  0  0
   30.7540   -9.4450    1.8330 C   0  0  0  0  0  0  0  0  0  0  0  0
   30.8700  -10.2230    3.1480 C   0  0  0  0  0  0  0  0  0  0  0  0
   31.5310  -11.4870    3.0130 N   0  0  0  0  0  0  0  0  0  0  0  0
   32.7010  -11.8470    3.6450 C   0  0  0  0  0  0  0  0  0  0  0  0
   33.2390  -13.2330    3.3850 C   0  0  0  0  0  0  0  0  0  0  0  0
   33.3030  -11.0570    4.3790 O   0  0  0  0  0  0  0  0  0  0  0  0
   27.4010   -5.7050    2.1110 O   0  0  0  0  0  0  0  0  0  0  0  0
  1  2  1  0  0  0  0
  2  3  1  0  0  0  0
  2  5  1  0  0  0  0
  3  4  4  0  0  0  0
  3 13  4  0  0  0  0
  5  6  1  0  0  0  0
  6  7  1  0  0  0  0
  7  8  1  0  0  0  0
  8  9  1  0  0  0  0
  9 10  1  0  0  0  0
 10 11  1  0  0  0  0
 10 12  2  0  0  0  0
M  END
$$$$
