complex
  PyMOL3.0          3D                             0

 25 28  0  0  0  0  0  0  0  0999 V2000
  103.5130   27.7410  100.9260 Cl  0  0  0  0  0  0  0  0  0  0  0  0
  100.5330   27.9100   95.2960 C   0  0  0  0  0  0  0  0  0  0  0  0
   99.6610   27.4180   94.3050 C   0  0  0  0  0  0  0  0  0  0  0  0
   98.9930   28.3490   93.4880 C   0  0  0  0  0  0  0  0  0  0  0  0
   99.1840   29.6870   93.6490 C   0  0  0  0  0  0  0  0  0  0  0  0
  100.0480   30.1730   94.6340 C   0  0  0  0  0  0  0  0  0  0  0  0
  100.7160   29.2990   95.4470 C   0  0  0  0  0  0  0  0  0  0  0  0
  100.2360   25.1720   95.0720 C   0  0  0  0  0  0  0  0  0  0  0  0
   99.5070   25.9930   94.1890 C   0  0  0  0  0  0  0  0  0  0  0  0
  101.2260   27.0780   96.1380 N   0  0  0  0  0  0  0  0  0  0  0  0
  101.0990   25.7870   96.0450 C   0  0  0  0  0  0  0  0  0  0  0  0
   99.2530   23.2920   94.0090 C   0  0  0  0  0  0  0  0  0  0  0  0
   98.5380   24.0730   93.1470 N   0  0  0  0  0  0  0  0  0  0  0  0
   98.6650   25.3880   93.2370 C   0  0  0  0  0  0  0  0  0  0  0  0
  100.0890   23.7780   94.9620 C   0  0  0  0  0  0  0  0  0  0  0  0
  101.8140   25.0180   96.9170 N   0  0  0  0  0  0  0  0  0  0  0  0
  102.8640   25.3670   97.7870 C   0  0  0  0  0  0  0  0  0  0  0  0
  102.6750   26.2900   98.8180 C   0  0  0  0  0  0  0  0  0  0  0  0
  103.7400   26.5870   99.6460 C   0  0  0  0  0  0  0  0  0  0  0  0
  104.9710   25.9980   99.4900 C   0  0  0  0  0  0  0  0  0  0  0  0
  105.1430   25.0870   98.4750 C   0  0  0  0  0  0  0  0  0  0  0  0
  104.1030   24.7640   97.6260 C   0  0  0  0  0  0  0  0  0  0  0  0
  100.2490   31.6390   94.7940 C   0  0  0  0  0  0  0  0  0  0  0  0
   99.8390   32.3790   93.8900 O   0  0  0  0  0  0  0  0  0  0  0  0
  100.8250   32.0350   95.8130 O   0  0  0  0  0  0  0  0  0  0  0  0
  1 19  1  0  0  0  0
  2  3  4  0  0  0  0
  2  7  4  0  0  0  0
  2 10  4  0  0  0  0
  3  4  4  0  0  0  0
  3  9  4  0  0  0  0
  4  5  4  0  0  0  0
  5  6  4  0  0  0  0
  6  7  4  0  0  0  0
  6 23  1  0  0  0  0
  8  9  4  0  0  0  0
  8 11  4  0  0  0  0
  8 15  4  0  0  0  0
  9 14  4  0  0  0  0
 10 11  4  0  0  0  0
 11 16  1  0  0  0  0
 12 13  4  0  0  0  0
 12 15  4  0  0  0  0
 13 14  4  0  0  0  0
 16 17  1  0  0  0  0
 17 18  4  0  0  0  0
 17 22  4  0  0  0  0
 18 19  4  0  0  0  0
 19 20  4  0  0  0  0
 20 21  4  0  0  0  0
 21 22  4  0  0  0  0
 23 24  4  0  0  0  0
 23 25  4  0  0  0  0
M  END
$$$$
