complex
  PyMOL3.0          3D                             0

 14 14  0  0  0  0  0  0  0  0999 V2000
  167.6980  215.4910  213.3600 C   0  0  0  0  0  0  0  0  0  0  0  0
  168.1760  214.1170  212.9510 C   0  0  0  0  0  0  0  0  0  0  0  0
  169.4090  214.1520  212.1810 N   0  0  0  0  0  0  0  0  0  0  0  0
  167.0450  213.4500  212.1660 C   0  0  0  0  0  0  0  0  0  0  0  0
  167.4010  212.1340  211.7610 O   0  0  0  0  0  0  0  0  0  0  0  0
  165.7640  213.4190  213.0030 C   0  0  0  0  0  0  0  0  0  0  0  0
  164.6630  213.0780  212.1670 O   0  0  0  0  0  0  0  0  0  0  0  0
  165.4540  214.7690  213.6820 C   0  0  0  0  0  0  0  0  0  0  0  0
  166.6210  215.3550  214.2910 O   0  0  0  0  0  0  0  0  0  0  0  0
  164.4100  214.6510  214.7680 C   0  0  0  0  0  0  0  0  0  0  0  0
  164.7900  215.3750  215.9290 O   0  0  0  0  0  0  0  0  0  0  0  0
  170.4170  213.2760  212.3270 C   0  0  0  0  0  0  0  0  0  0  0  0
  171.4270  213.3520  211.6540 O   0  0  0  0  0  0  0  0  0  0  0  0
  170.2410  212.1940  213.3640 C   0  0  0  0  0  0  0  0  0  0  0  0
  1  2  1  0  0  0  0
  1  9  1  0  0  0  0
  2  3  1  0  0  0  0
  2  4  1  0  0  0  0
  3 12  1  0  0  0  0
  4  5  1  0  0  0  0
  4  6  1  0  0  0  0
  6  7  1  0  0  0  0
  6  8  1  0  0  0  0
  8  9  1  0  0  0  0
  8 10  1  0  0  0  0
 10 11  1  0  0  0  0
 12 13  2  0  0  0  0
 12 14  1  0  0  0  0
M  END
$$$$
