complex
  PyMOL3.0          3D                             0

 14 13  0  0  0  0  0  0  0  0999 V2000
  -19.0540   28.0250  -24.0730 C   0  0  0  0  0  0  0  0  0  0  0  0
  -19.2070   28.1690  -22.6910 O   0  0  0  0  0  0  0  0  0  0  0  0
  -19.7430   29.2420  -24.7320 C   0  0  0  0  0  0  0  0  0  0  0  0
  -20.9450   29.5860  -24.0620 O   0  0  0  0  0  0  0  0  0  0  0  0
  -18.6570   30.3640  -24.7930 C   0  0  0  0  0  0  0  0  0  0  0  0
  -18.9660   31.3210  -25.7850 O   0  0  0  0  0  0  0  0  0  0  0  0
  -20.0060   28.5880  -22.4390 H   0  0  0  0  0  0  0  0  0  0  0  0
  -21.3800   30.3060  -24.4670 H   0  0  0  0  0  0  0  0  0  0  0  0
  -18.5230   32.1370  -25.7080 H   0  0  0  0  0  0  0  0  0  0  0  0
  -20.0860   29.0400  -25.7390 H   0  0  0  0  0  0  0  0  0  0  0  0
  -19.5230   27.1070  -24.4060 H   0  0  0  0  0  0  0  0  0  0  0  0
  -18.0020   28.0070  -24.3320 H   0  0  0  0  0  0  0  0  0  0  0  0
  -17.6980   29.9160  -25.0210 H   0  0  0  0  0  0  0  0  0  0  0  0
  -18.6050   30.8580  -23.8300 H   0  0  0  0  0  0  0  0  0  0  0  0
  1  2  1  0  0  0  0
  1  3  1  0  0  0  0
  1 11  1  0  0  0  0
  1 12  1  0  0  0  0
  2  7  1  0  0  0  0
  3  4  1  0  0  0  0
  3  5  1  0  0  0  0
  3 10  1  0  0  0  0
  4  8  1  0  0  0  0
  5  6  1  0  0  0  0
  5 13  1  0  0  0  0
  5 14  1  0  0  0  0
  6  9  1  0  0  0  0
M  END
$$$$
