complex
  PyMOL3.0          3D                             0

  6  5  0  0  0  0  0  0  0  0999 V2000
  -21.1740   10.3690  -11.0490 C   0  0  0  0  0  0  0  0  0  0  0  0
  -22.3770   10.1240  -11.7670 O   0  0  0  0  0  0  0  0  0  0  0  0
  -19.9570   10.2040  -12.0390 C   0  0  0  0  0  0  0  0  0  0  0  0
  -19.9360    8.9660  -12.7150 O   0  0  0  0  0  0  0  0  0  0  0  0
  -20.0360   11.4340  -13.0150 C   0  0  0  0  0  0  0  0  0  0  0  0
  -19.6070   12.5640  -12.2980 O   0  0  0  0  0  0  0  0  0  0  0  0
  1  2  1  0  0  0  0
  1  3  1  0  0  0  0
  3  4  1  0  0  0  0
  3  5  1  0  0  0  0
  5  6  1  0  0  0  0
M  END
$$$$
