complex
  PyMOL3.0          3D                             0

  4  3  0  0  0  0  0  0  0  0999 V2000
   14.6110   30.6550   13.5970 C   0  0  0  0  0  0  0  0  0  0  0  0
   14.8060   31.8110   14.3980 O   0  0  0  0  0  0  0  0  0  0  0  0
   15.7120   29.6530   13.6610 C   0  0  0  0  0  0  0  0  0  0  0  0
   15.4220   28.4610   12.9430 O   0  0  0  0  0  0  0  0  0  0  0  0
  1  2  1  0  0  0  0
  1  3  1  0  0  0  0
  3  4  1  0  0  0  0
M  END
$$$$
