complex
  PyMOL3.0          3D                             0

  5  4  0  0  0  0  0  0  0  0999 V2000
  -29.5030   21.2160  -36.9650 O   0  0  0  0  0  0  0  0  0  0  0  0
  -28.4270   23.2310  -36.2810 O   0  0  0  0  0  0  0  0  0  0  0  0
  -30.4370   22.5270  -35.2070 O   0  5  0  0  0  0  0  0  0  0  0  0
  -28.4090   21.3240  -34.8490 O   0  0  0  0  0  0  0  0  0  0  0  0
  -29.1940   22.0740  -35.8250 S   0  0  0  0  0  0  0  0  0  0  0  0
  1  5  1  0  0  0  0
  2  5  1  0  0  0  0
  3  5  1  0  0  0  0
  4  5  2  0  0  0  0
M  END
$$$$
