complex
  PyMOL3.0          3D                             0

  6  5  0  0  0  0  0  0  0  0999 V2000
   -5.5960  -28.4620  -24.5770 C   0  0  0  0  0  0  0  0  0  0  0  0
   -5.5910  -27.8450  -25.8290 O   0  0  0  0  0  0  0  0  0  0  0  0
   -6.9950  -28.2400  -23.9360 C   0  0  0  0  0  0  0  0  0  0  0  0
   -6.9170  -27.5300  -22.7480 O   0  0  0  0  0  0  0  0  0  0  0  0
   -7.8360  -27.5010  -25.0050 C   0  0  0  0  0  0  0  0  0  0  0  0
   -8.8430  -28.3790  -25.3950 O   0  0  0  0  0  0  0  0  0  0  0  0
  1  2  1  0  0  0  0
  1  3  1  0  0  0  0
  3  4  1  0  0  0  0
  3  5  1  0  0  0  0
  5  6  1  0  0  0  0
M  END
$$$$
