complex
  PyMOL3.0          3D                             0

 10  9  0  0  0  0  0  0  0  0999 V2000
    3.2870  -56.0900   12.8190 C   0  0  0  0  0  0  0  0  0  0  0  0
    3.6810  -57.4530   12.8060 O   0  0  0  0  0  0  0  0  0  0  0  0
    3.8660  -55.4080   11.6090 C   0  0  0  0  0  0  0  0  0  0  0  0
    4.0630  -54.0600   11.9180 O   0  0  0  0  0  0  0  0  0  0  0  0
    4.0400  -57.6920   13.6700 H   0  0  0  0  0  0  0  0  0  0  0  0
    4.4350  -53.6050   11.1510 H   0  0  0  0  0  0  0  0  0  0  0  0
    2.3280  -56.1400   12.4100 H   0  0  0  0  0  0  0  0  0  0  0  0
    3.2610  -55.5640   13.7500 H   0  0  0  0  0  0  0  0  0  0  0  0
    4.6630  -55.9590   11.1120 H   0  0  0  0  0  0  0  0  0  0  0  0
    2.9090  -55.5890   11.2400 H   0  0  0  0  0  0  0  0  0  0  0  0
  1  2  1  0  0  0  0
  1  3  1  0  0  0  0
  1  7  1  0  0  0  0
  1  8  1  0  0  0  0
  2  5  1  0  0  0  0
  3  4  1  0  0  0  0
  3  9  1  0  0  0  0
  3 10  1  0  0  0  0
  4  6  1  0  0  0  0
M  END
$$$$
