complex
  PyMOL3.0          3D                             0

  5  4  0  0  0  0  0  0  0  0999 V2000
  -79.2850  -26.6580   32.8870 O   0  0  0  0  0  0  0  0  0  0  0  0
  -79.9930  -28.8200   33.3490 O   0  0  0  0  0  0  0  0  0  0  0  0
  -78.0410  -28.0250   34.3830 O   0  5  0  0  0  0  0  0  0  0  0  0
  -80.1600  -27.1750   35.0570 O   0  0  0  0  0  0  0  0  0  0  0  0
  -79.3680  -27.6560   33.9210 S   0  0  0  0  0  0  0  0  0  0  0  0
  1  5  1  0  0  0  0
  2  5  1  0  0  0  0
  3  5  1  0  0  0  0
  4  5  2  0  0  0  0
M  END
$$$$
