complex
  PyMOL3.0          3D                             0

 51 53  0  0  0  0  0  0  0  0999 V2000
  -45.7580   24.4210    0.4010 C   0  0  0  0  0  0  0  0  0  0  0  0
  -46.1900   25.4020   -0.5040 O   0  0  0  0  0  0  0  0  0  0  0  0
  -46.9430   24.9580   -1.6180 C   0  0  0  0  0  0  0  0  0  0  0  0
  -47.1750   25.8450   -2.6610 C   0  0  0  0  0  0  0  0  0  0  0  0
  -47.9130   25.4590   -3.7670 C   0  0  0  0  0  0  0  0  0  0  0  0
  -48.4270   24.1700   -3.8450 C   0  0  0  0  0  0  0  0  0  0  0  0
  -48.2010   23.2750   -2.8040 C   0  0  0  0  0  0  0  0  0  0  0  0
  -47.4530   23.6650   -1.6930 C   0  0  0  0  0  0  0  0  0  0  0  0
  -49.2450   23.7260   -5.0690 C   0  0  0  0  0  0  0  0  0  0  0  0
  -48.7190   23.4780   -6.2950 C   0  0  0  0  0  0  0  0  0  0  0  0
  -47.2630   23.5860   -6.8030 C   0  0  0  0  0  0  0  0  0  0  0  0
  -46.5590   22.4880   -7.2270 C   0  0  0  0  0  0  0  0  0  0  0  0
  -45.2320   22.6260   -7.6930 C   0  0  0  0  0  0  0  0  0  0  0  0
  -44.6040   23.9070   -7.7320 C   0  0  0  0  0  0  0  0  0  0  0  0
  -43.2290   24.1090   -8.2060 N   0  0  0  0  0  0  0  0  0  0  0  0
  -42.2600   24.8090   -7.3610 C   0  0  0  0  0  0  0  0  0  0  0  0
  -42.5770   25.2060   -6.2910 O   0  0  0  0  0  0  0  0  0  0  0  0
  -40.8270   25.0410   -7.8500 C   0  0  0  0  0  0  0  0  0  0  0  0
  -39.9910   25.8590   -6.8520 C   0  0  0  0  0  0  0  0  0  0  0  0
  -45.3840   25.0000   -7.2910 C   0  0  0  0  0  0  0  0  0  0  0  0
  -46.6760   24.8070   -6.8470 C   0  0  0  0  0  0  0  0  0  0  0  0
  -49.8130   23.1600   -6.9040 N   0  0  0  0  0  0  0  0  0  0  0  0
  -49.7380   22.8110   -8.3030 C   0  0  0  0  0  0  0  0  0  0  0  0
  -51.0570   23.1010   -6.3740 C   0  0  0  0  0  0  0  0  0  0  0  0
  -52.2790   22.8180   -6.7430 N   0  0  0  0  0  0  0  0  0  0  0  0
  -53.2660   22.8980   -5.8380 C   0  0  0  0  0  0  0  0  0  0  0  0
  -53.0210   23.2700   -4.5410 N   0  0  0  0  0  0  0  0  0  0  0  0
  -51.7890   23.5790   -4.1210 C   0  0  0  0  0  0  0  0  0  0  0  0
  -51.5660   23.9740   -2.7390 N   0  0  0  0  0  0  0  0  0  0  0  0
  -50.7470   23.5120   -4.9920 C   0  0  0  0  0  0  0  0  0  0  0  0
  -45.2820   24.8330    1.0980 H   0  0  0  0  0  0  0  0  0  0  0  0
  -45.2030   23.8000   -0.0250 H   0  0  0  0  0  0  0  0  0  0  0  0
  -46.4920   23.9650    0.7570 H   0  0  0  0  0  0  0  0  0  0  0  0
  -46.8370   26.7090   -2.6150 H   0  0  0  0  0  0  0  0  0  0  0  0
  -48.0610   26.0610   -4.4590 H   0  0  0  0  0  0  0  0  0  0  0  0
  -48.5400   22.4120   -2.8520 H   0  0  0  0  0  0  0  0  0  0  0  0
  -47.3100   23.0620   -1.0010 H   0  0  0  0  0  0  0  0  0  0  0  0
  -46.9550   21.6480   -7.2040 H   0  0  0  0  0  0  0  0  0  0  0  0
  -44.7670   21.8710   -7.9710 H   0  0  0  0  0  0  0  0  0  0  0  0
  -42.9950   23.8250   -8.9920 H   0  0  0  0  0  0  0  0  0  0  0  0
  -40.4040   24.1990   -7.9810 H   0  0  0  0  0  0  0  0  0  0  0  0
  -40.5350   26.5360   -6.4650 H   0  0  0  0  0  0  0  0  0  0  0  0
  -39.2670   26.2690   -7.3120 H   0  0  0  0  0  0  0  0  0  0  0  0
  -45.0270   25.8580   -7.2950 H   0  0  0  0  0  0  0  0  0  0  0  0
  -47.1620   25.5450   -6.5600 H   0  0  0  0  0  0  0  0  0  0  0  0
  -48.8990   22.4500   -8.5110 H   0  0  0  0  0  0  0  0  0  0  0  0
  -50.4000   22.1730   -8.4960 H   0  0  0  0  0  0  0  0  0  0  0  0
  -49.8870   23.5780   -8.8240 H   0  0  0  0  0  0  0  0  0  0  0  0
  -54.1350   22.6950   -6.0960 H   0  0  0  0  0  0  0  0  0  0  0  0
  -50.9010   23.6380   -2.2930 H   0  0  0  0  0  0  0  0  0  0  0  0
  -52.0980   24.5460   -2.3600 H   0  0  0  0  0  0  0  0  0  0  0  0
  1  2  1  0  0  0  0
  1 31  1  0  0  0  0
  1 32  1  0  0  0  0
  1 33  1  0  0  0  0
  2  3  1  0  0  0  0
  3  4  4  0  0  0  0
  3  8  4  0  0  0  0
  4  5  4  0  0  0  0
  4 34  1  0  0  0  0
  5  6  4  0  0  0  0
  5 35  1  0  0  0  0
  6  7  4  0  0  0  0
  6  9  1  0  0  0  0
  7  8  4  0  0  0  0
  7 36  1  0  0  0  0
  8 37  1  0  0  0  0
  9 10  4  0  0  0  0
  9 30  4  0  0  0  0
 10 11  1  0  0  0  0
 10 22  4  0  0  0  0
 11 12  4  0  0  0  0
 11 21  4  0  0  0  0
 12 13  4  0  0  0  0
 12 38  1  0  0  0  0
 13 14  4  0  0  0  0
 13 39  1  0  0  0  0
 14 15  1  0  0  0  0
 14 20  4  0  0  0  0
 15 16  1  0  0  0  0
 15 40  1  0  0  0  0
 16 17  2  0  0  0  0
 16 18  1  0  0  0  0
 18 19  1  0  0  0  0
 19 42  1  0  0  0  0
 19 43  1  0  0  0  0
 20 21  4  0  0  0  0
 20 44  1  0  0  0  0
 21 45  1  0  0  0  0
 22 23  1  0  0  0  0
 22 24  4  0  0  0  0
 23 46  1  0  0  0  0
 23 47  1  0  0  0  0
 23 48  1  0  0  0  0
 24 25  4  0  0  0  0
 24 30  4  0  0  0  0
 25 26  4  0  0  0  0
 26 27  4  0  0  0  0
 26 49  1  0  0  0  0
 27 28  4  0  0  0  0
 28 29  1  0  0  0  0
 28 30  4  0  0  0  0
 29 50  1  0  0  0  0
 29 51  1  0  0  0  0
M  END
$$$$
