complex
  PyMOL3.0          3D                             0

 11 11  0  0  0  0  0  0  0  0999 V2000
  214.1440  184.5710  266.6850 C   0  0  0  0  0  0  0  0  0  0  0  0
  214.0110  186.0350  266.1980 C   0  0  0  0  0  0  0  0  0  0  0  0
  215.2690  186.5560  265.8130 O   0  0  0  0  0  0  0  0  0  0  0  0
  213.1230  186.0490  264.9420 C   0  0  0  0  0  0  0  0  0  0  0  0
  212.9190  187.3720  264.4410 O   0  0  0  0  0  0  0  0  0  0  0  0
  213.6600  185.0880  263.8400 C   0  0  0  0  0  0  0  0  0  0  0  0
  212.7650  185.0420  262.7470 O   0  0  0  0  0  0  0  0  0  0  0  0
  213.8240  183.6640  264.4580 C   0  0  0  0  0  0  0  0  0  0  0  0
  214.6850  183.7540  265.6330 O   0  0  0  0  0  0  0  0  0  0  0  0
  214.3860  182.6120  263.5130 C   0  0  0  0  0  0  0  0  0  0  0  0
  215.3220  183.2110  262.6160 O   0  0  0  0  0  0  0  0  0  0  0  0
  1  2  1  0  0  0  0
  1  9  1  0  0  0  0
  2  3  1  0  0  0  0
  2  4  1  0  0  0  0
  4  5  1  0  0  0  0
  4  6  1  0  0  0  0
  6  7  1  0  0  0  0
  6  8  1  0  0  0  0
  8  9  1  0  0  0  0
  8 10  1  0  0  0  0
 10 11  1  0  0  0  0
M  END
$$$$
