complex
  PyMOL3.0          3D                             0

  8  7  0  0  0  0  0  0  0  0999 V2000
   -6.4190   18.2300    6.5650 N   0  0  0  0  0  0  0  0  0  0  0  0
   -5.1770   18.9800    6.5070 C   0  0  0  0  0  0  0  0  0  0  0  0
   -4.5500   19.0460    7.8950 C   0  0  0  0  0  0  0  0  0  0  0  0
   -3.3780   18.7280    8.0580 O   0  0  0  0  0  0  0  0  0  0  0  0
   -5.4190   20.3900    5.9680 C   0  0  0  0  0  0  0  0  0  0  0  0
   -4.1390   21.1830    5.8310 C   0  0  0  0  0  0  0  0  0  0  0  0
   -5.2280   23.6970    7.0630 C   0  0  0  0  0  0  0  0  0  0  0  0
   -4.5270   23.0480    5.3380 Se  0  0  0  0  0  0  0  0  0  0  0  0
  1  2  1  0  0  0  0
  2  3  1  0  0  0  0
  2  5  1  0  0  0  0
  3  4  2  0  0  0  0
  5  6  1  0  0  0  0
  6  8  1  0  0  0  0
  7  8  1  0  0  0  0
M  END
$$$$
