complex
  PyMOL3.0          3D                             0

 27 29  0  0  0  0  0  0  0  0999 V2000
  186.4240  122.4230  201.9650 P   0  0  0  0  0  0  0  0  0  0  0  0
  189.0730  123.1160  201.4460 P   0  0  0  0  0  0  0  0  0  0  0  0
  186.1300  121.2170  204.3060 C   0  0  0  0  0  0  0  0  0  0  0  0
  185.7510  121.3340  202.9390 O   0  0  0  0  0  0  0  0  0  0  0  0
  184.9180  120.7320  205.0910 C   0  0  0  0  0  0  0  0  0  0  0  0
  184.3720  119.5450  204.5100 O   0  0  0  0  0  0  0  0  0  0  0  0
  185.2510  120.3950  206.5360 C   0  0  0  0  0  0  0  0  0  0  0  0
  184.7870  121.4330  207.4020 O   0  0  0  0  0  0  0  0  0  0  0  0
  184.5120  119.1050  206.8310 C   0  0  0  0  0  0  0  0  0  0  0  0
  183.5570  119.3150  207.8750 O   0  0  0  0  0  0  0  0  0  0  0  0
  183.7980  118.7380  205.5410 C   0  0  0  0  0  0  0  0  0  0  0  0
  181.6050  113.9800  205.6550 N   0  0  0  0  0  0  0  0  0  0  0  0
  185.8920  122.1770  200.5760 O   0  5  0  0  0  0  0  0  0  0  0  0
  188.6340  123.4250  200.0350 O   0  0  0  0  0  0  0  0  0  0  0  0
  181.1100  115.1740  206.0270 C   0  0  0  0  0  0  0  0  0  0  0  0
  186.2590  123.7910  202.5810 O   0  0  0  0  0  0  0  0  0  0  0  0
  190.3860  122.3770  201.5420 O   0  5  0  0  0  0  0  0  0  0  0  0
  181.7970  116.3260  205.9400 N   0  0  0  0  0  0  0  0  0  0  0  0
  187.9860  122.0420  201.9520 O   0  0  0  0  0  0  0  0  0  0  0  0
  188.9400  124.2790  202.3970 O   0  0  0  0  0  0  0  0  0  0  0  0
  183.0610  116.3450  205.4590 C   0  0  0  0  0  0  0  0  0  0  0  0
  183.6730  115.0800  205.0300 C   0  0  0  0  0  0  0  0  0  0  0  0
  182.8540  113.8540  205.1560 C   0  0  0  0  0  0  0  0  0  0  0  0
  183.3400  112.6460  204.7850 N   0  0  0  0  0  0  0  0  0  0  0  0
  184.9110  115.3790  204.6000 N   0  0  0  0  0  0  0  0  0  0  0  0
  185.0790  116.7190  204.7400 C   0  0  0  0  0  0  0  0  0  0  0  0
  183.9750  117.2940  205.2500 N   0  0  0  0  0  0  0  0  0  0  0  0
  1  4  1  0  0  0  0
  1 13  1  0  0  0  0
  1 16  2  0  0  0  0
  1 19  1  0  0  0  0
  2 14  1  0  0  0  0
  2 17  1  0  0  0  0
  2 19  1  0  0  0  0
  2 20  2  0  0  0  0
  3  4  1  0  0  0  0
  3  5  1  0  0  0  0
  5  6  1  0  0  0  0
  5  7  1  0  0  0  0
  6 11  1  0  0  0  0
  7  8  1  0  0  0  0
  7  9  1  0  0  0  0
  9 10  1  0  0  0  0
  9 11  1  0  0  0  0
 11 27  1  0  0  0  0
 12 15  4  0  0  0  0
 12 23  4  0  0  0  0
 15 18  4  0  0  0  0
 18 21  4  0  0  0  0
 21 22  4  0  0  0  0
 21 27  4  0  0  0  0
 22 23  4  0  0  0  0
 22 25  4  0  0  0  0
 23 24  1  0  0  0  0
 25 26  4  0  0  0  0
 26 27  4  0  0  0  0
M  END
$$$$
