complex
  PyMOL3.0          3D                             0

  4  3  0  0  0  0  0  0  0  0999 V2000
   -5.4610   55.9700   60.7440 C   0  0  0  0  0  0  0  0  0  0  0  0
   -4.6420   57.0730   60.3890 O   0  0  0  0  0  0  0  0  0  0  0  0
   -4.7020   54.8180   61.3210 C   0  0  0  0  0  0  0  0  0  0  0  0
   -3.5630   55.1990   62.0750 O   0  0  0  0  0  0  0  0  0  0  0  0
  1  2  1  0  0  0  0
  1  3  1  0  0  0  0
  3  4  1  0  0  0  0
M  END
$$$$
