complex
  PyMOL3.0          3D                             0

 17 26  0  0  0  0  0  0  0  0999 V2000
  -39.3700  -14.2530   49.7000 S   0  0  0  0  0  0  0  0  0  0  0  0
  -40.8620  -11.5840   51.4060 S   0  0  0  0  0  0  0  0  0  0  0  0
  -42.6410  -14.8750   50.9130 S   0  0  0  0  0  0  0  0  0  0  0  0
  -40.2430  -14.4810   53.4130 S   0  0  0  0  0  0  0  0  0  0  0  0
  -46.2230  -10.4220   55.2320 S   0  0  0  0  0  0  0  0  0  0  0  0
  -42.6920   -9.4010   55.2750 S   0  0  0  0  0  0  0  0  0  0  0  0
  -44.5020   -9.4710   52.1310 S   0  0  0  0  0  0  0  0  0  0  0  0
  -45.3340   -6.8990   54.5650 S   0  0  0  0  0  0  0  0  0  0  0  0
  -43.7810  -12.8640   53.6360 S   0  0  0  0  0  0  0  0  0  0  0  0
  -41.9830  -13.3580   52.4430 Fe  0  0  0  0  0  0  0  0  0  0  0  0
  -40.5800  -15.3660   51.3550 Fe  0  0  0  0  0  0  0  0  0  0  0  0
  -39.3940  -13.1390   51.7490 Fe  0  0  0  0  0  0  0  0  0  0  0  0
  -41.3130  -13.2900   49.8630 Fe  0  0  0  0  0  0  0  0  0  0  0  0
  -43.5760   -8.0520   53.6210 Fe  0  0  0  0  0  0  0  0  0  0  0  0
  -46.2650   -8.8070   53.5450 Fe  0  0  0  0  0  0  0  0  0  0  0  0
  -44.8170   -8.7650   55.8850 Fe  0  0  0  0  0  0  0  0  0  0  0  0
  -44.2320  -10.6830   53.9870 Fe  0  0  0  0  0  0  0  0  0  0  0  0
  1 11  1  0  0  0  0
  1 12  1  0  0  0  0
  1 13  1  0  0  0  0
  2 10  1  0  0  0  0
  2 12  1  0  0  0  0
  2 13  1  0  0  0  0
  3 10  1  0  0  0  0
  3 11  1  0  0  0  0
  3 13  1  0  0  0  0
  4 10  1  0  0  0  0
  4 11  1  0  0  0  0
  4 12  1  0  0  0  0
  5 15  1  0  0  0  0
  5 16  1  0  0  0  0
  5 17  1  0  0  0  0
  6 14  1  0  0  0  0
  6 16  1  0  0  0  0
  6 17  1  0  0  0  0
  7 14  1  0  0  0  0
  7 15  1  0  0  0  0
  7 17  1  0  0  0  0
  8 14  1  0  0  0  0
  8 15  1  0  0  0  0
  8 16  1  0  0  0  0
  9 10  1  0  0  0  0
  9 17  1  0  0  0  0
M  END
$$$$
