complex
  PyMOL3.0          3D                             0

  5  4  0  0  0  0  0  0  0  0999 V2000
  -52.1470  -42.5420   30.0550 O   0  0  0  0  0  0  0  0  0  0  0  0
  -54.3810  -42.9880   30.9000 O   0  0  0  0  0  0  0  0  0  0  0  0
  -52.5850  -42.6850   32.4040 O   0  5  0  0  0  0  0  0  0  0  0  0
  -53.3680  -40.8130   31.1330 O   0  0  0  0  0  0  0  0  0  0  0  0
  -53.1290  -42.2520   31.1080 S   0  0  0  0  0  0  0  0  0  0  0  0
  1  5  1  0  0  0  0
  2  5  1  0  0  0  0
  3  5  1  0  0  0  0
  4  5  2  0  0  0  0
M  END
$$$$
