complex
  PyMOL3.0          3D                             0

 12 11  0  0  0  0  0  0  0  0999 V2000
  -16.2610   -8.3890   -0.9760 N   0  0  0  0  0  0  0  0  0  0  0  0
  -15.5140   -7.1410   -1.0920 C   0  0  0  0  0  0  0  0  0  0  0  0
  -16.3420   -5.8910   -1.2310 C   0  0  0  0  0  0  0  0  0  0  0  0
  -15.7680   -4.8140   -1.4920 O   0  0  0  0  0  0  0  0  0  0  0  0
  -14.6040   -7.2270   -2.3000 C   0  0  0  0  0  0  0  0  0  0  0  0
  -13.6890   -8.4270   -2.1330 C   0  0  0  0  0  0  0  0  0  0  0  0
  -12.8000   -8.5580   -3.3590 C   0  0  0  0  0  0  0  0  0  0  0  0
  -11.8620   -9.7490   -3.1630 C   0  0  0  0  0  0  0  0  0  0  0  0
  -10.9530   -9.8330   -4.2870 N   0  0  0  0  0  0  0  0  0  0  0  0
  -10.7810  -10.9680   -4.9450 C   0  0  0  0  0  0  0  0  0  0  0  0
   -9.8470  -10.8660   -6.1130 C   0  0  0  0  0  0  0  0  0  0  0  0
  -11.3370  -12.0100   -4.6160 O   0  0  0  0  0  0  0  0  0  0  0  0
  1  2  1  0  0  0  0
  2  3  1  0  0  0  0
  2  5  1  0  0  0  0
  3  4  2  0  0  0  0
  5  6  1  0  0  0  0
  6  7  1  0  0  0  0
  7  8  1  0  0  0  0
  8  9  1  0  0  0  0
  9 10  1  0  0  0  0
 10 11  1  0  0  0  0
 10 12  2  0  0  0  0
M  END
$$$$
