complex
  PyMOL3.0          3D                             0

 14 14  0  0  0  0  0  0  0  0999 V2000
  229.6780  263.4940  270.8380 C   0  0  0  0  0  0  0  0  0  0  0  0
  229.2070  263.8650  269.4310 C   0  0  0  0  0  0  0  0  0  0  0  0
  227.9490  264.5920  269.4720 N   0  0  0  0  0  0  0  0  0  0  0  0
  229.0720  262.6040  268.5750 C   0  0  0  0  0  0  0  0  0  0  0  0
  228.7300  262.9790  267.2460 O   0  0  0  0  0  0  0  0  0  0  0  0
  230.3620  261.7860  268.5830 C   0  0  0  0  0  0  0  0  0  0  0  0
  230.1200  260.5330  267.9490 O   0  0  0  0  0  0  0  0  0  0  0  0
  230.8390  261.5300  270.0200 C   0  0  0  0  0  0  0  0  0  0  0  0
  230.9250  262.7650  270.7530 O   0  0  0  0  0  0  0  0  0  0  0  0
  232.2090  260.8950  270.0920 C   0  0  0  0  0  0  0  0  0  0  0  0
  232.1750  259.5340  269.6860 O   0  0  0  0  0  0  0  0  0  0  0  0
  227.8730  265.9260  269.4070 C   0  0  0  0  0  0  0  0  0  0  0  0
  228.8730  266.6300  269.3110 O   0  0  0  0  0  0  0  0  0  0  0  0
  226.4930  266.5090  269.4620 C   0  0  0  0  0  0  0  0  0  0  0  0
  1  2  1  0  0  0  0
  1  9  1  0  0  0  0
  2  3  1  0  0  0  0
  2  4  1  0  0  0  0
  3 12  1  0  0  0  0
  4  5  1  0  0  0  0
  4  6  1  0  0  0  0
  6  7  1  0  0  0  0
  6  8  1  0  0  0  0
  8  9  1  0  0  0  0
  8 10  1  0  0  0  0
 10 11  1  0  0  0  0
 12 13  2  0  0  0  0
 12 14  1  0  0  0  0
M  END
$$$$
