complex
  PyMOL3.0          3D                             0

  5  4  0  0  0  0  0  0  0  0999 V2000
  -71.5940  -11.8980   22.1420 O   0  0  0  0  0  0  0  0  0  0  0  0
  -70.9750  -14.1570   21.8320 O   0  0  0  0  0  0  0  0  0  0  0  0
  -69.5720  -12.6880   23.0000 O   0  5  0  0  0  0  0  0  0  0  0  0
  -71.5440  -13.3890   24.0300 O   0  0  0  0  0  0  0  0  0  0  0  0
  -70.9340  -13.0390   22.7500 S   0  0  0  0  0  0  0  0  0  0  0  0
  1  5  1  0  0  0  0
  2  5  1  0  0  0  0
  3  5  1  0  0  0  0
  4  5  2  0  0  0  0
M  END
$$$$
