complex
  PyMOL3.0          3D                             0

 27 29  0  0  0  0  0  0  0  0999 V2000
  139.7960  129.2310  112.7560 P   0  0  0  0  0  0  0  0  0  0  0  0
  137.1910  130.0670  112.9860 P   0  0  0  0  0  0  0  0  0  0  0  0
  140.5660  128.4900  110.3800 C   0  0  0  0  0  0  0  0  0  0  0  0
  140.3260  128.1150  111.7320 O   0  0  0  0  0  0  0  0  0  0  0  0
  141.8580  127.8770  109.8590 C   0  0  0  0  0  0  0  0  0  0  0  0
  142.0360  126.5420  110.3250 O   0  0  0  0  0  0  0  0  0  0  0  0
  141.8670  127.8120  108.3420 C   0  0  0  0  0  0  0  0  0  0  0  0
  142.8400  128.7200  107.8280 O   0  0  0  0  0  0  0  0  0  0  0  0
  142.2790  126.4000  107.9940 C   0  0  0  0  0  0  0  0  0  0  0  0
  143.3710  126.4290  107.0780 O   0  0  0  0  0  0  0  0  0  0  0  0
  142.7100  125.7950  109.3150 C   0  0  0  0  0  0  0  0  0  0  0  0
  144.3490  120.8740  108.7020 N   0  0  0  0  0  0  0  0  0  0  0  0
  139.8570  130.5640  112.0570 O   0  5  0  0  0  0  0  0  0  0  0  0
  137.2030  130.5380  111.5570 O   0  0  0  0  0  0  0  0  0  0  0  0
  145.0010  122.0340  108.5270 C   0  0  0  0  0  0  0  0  0  0  0  0
  140.5060  129.0730  114.0730 O   0  0  0  0  0  0  0  0  0  0  0  0
  135.9080  129.4160  113.4330 O   0  5  0  0  0  0  0  0  0  0  0  0
  144.4430  123.2370  108.7250 N   0  0  0  0  0  0  0  0  0  0  0  0
  138.2500  128.8640  112.9510 O   0  0  0  0  0  0  0  0  0  0  0  0
  137.7750  131.0490  113.9690 O   0  0  0  0  0  0  0  0  0  0  0  0
  143.1570  123.3480  109.1200 C   0  0  0  0  0  0  0  0  0  0  0  0
  142.3770  122.1270  109.3330 C   0  0  0  0  0  0  0  0  0  0  0  0
  143.0600  120.8390  109.0950 C   0  0  0  0  0  0  0  0  0  0  0  0
  142.4120  119.6630  109.2680 N   0  0  0  0  0  0  0  0  0  0  0  0
  141.1510  122.5170  109.7180 N   0  0  0  0  0  0  0  0  0  0  0  0
  141.1470  123.8730  109.7490 C   0  0  0  0  0  0  0  0  0  0  0  0
  142.3430  124.3640  109.3910 N   0  0  0  0  0  0  0  0  0  0  0  0
  1  4  1  0  0  0  0
  1 13  1  0  0  0  0
  1 16  2  0  0  0  0
  1 19  1  0  0  0  0
  2 14  1  0  0  0  0
  2 17  1  0  0  0  0
  2 19  1  0  0  0  0
  2 20  2  0  0  0  0
  3  4  1  0  0  0  0
  3  5  1  0  0  0  0
  5  6  1  0  0  0  0
  5  7  1  0  0  0  0
  6 11  1  0  0  0  0
  7  8  1  0  0  0  0
  7  9  1  0  0  0  0
  9 10  1  0  0  0  0
  9 11  1  0  0  0  0
 11 27  1  0  0  0  0
 12 15  4  0  0  0  0
 12 23  4  0  0  0  0
 15 18  4  0  0  0  0
 18 21  4  0  0  0  0
 21 22  4  0  0  0  0
 21 27  4  0  0  0  0
 22 23  4  0  0  0  0
 22 25  4  0  0  0  0
 23 24  1  0  0  0  0
 25 26  4  0  0  0  0
 26 27  4  0  0  0  0
M  END
$$$$
