complex
  PyMOL3.0          3D                             0

 10  9  0  0  0  0  0  0  0  0999 V2000
    5.5490  -54.3940  -19.4040 C   0  0  0  0  0  0  0  0  0  0  0  0
    4.2550  -54.7960  -19.8700 O   0  0  0  0  0  0  0  0  0  0  0  0
    5.5870  -52.9220  -19.0490 C   0  0  0  0  0  0  0  0  0  0  0  0
    5.1610  -52.1710  -20.2130 O   0  0  0  0  0  0  0  0  0  0  0  0
    4.2690  -55.7380  -20.0860 H   0  0  0  0  0  0  0  0  0  0  0  0
    5.9440  -51.8920  -20.7010 H   0  0  0  0  0  0  0  0  0  0  0  0
    5.7670  -54.9790  -18.5220 H   0  0  0  0  0  0  0  0  0  0  0  0
    6.3040  -54.6160  -20.1610 H   0  0  0  0  0  0  0  0  0  0  0  0
    6.5960  -52.6280  -18.7560 H   0  0  0  0  0  0  0  0  0  0  0  0
    4.9080  -52.7450  -18.2140 H   0  0  0  0  0  0  0  0  0  0  0  0
  1  2  1  0  0  0  0
  1  3  1  0  0  0  0
  1  7  1  0  0  0  0
  1  8  1  0  0  0  0
  2  5  1  0  0  0  0
  3  4  1  0  0  0  0
  3  9  1  0  0  0  0
  3 10  1  0  0  0  0
  4  6  1  0  0  0  0
M  END
$$$$
