complex
  PyMOL3.0          3D                             0

 14 14  0  0  0  0  0  0  0  0999 V2000
  131.1170  158.0790  256.8540 C   0  0  0  0  0  0  0  0  0  0  0  0
  132.2700  158.9620  256.3120 C   0  0  0  0  0  0  0  0  0  0  0  0
  132.3820  160.2110  257.0530 N   0  0  0  0  0  0  0  0  0  0  0  0
  132.0370  159.2510  254.8260 C   0  0  0  0  0  0  0  0  0  0  0  0
  133.1180  160.0100  254.2980 O   0  0  0  0  0  0  0  0  0  0  0  0
  131.8650  157.9570  254.0410 C   0  0  0  0  0  0  0  0  0  0  0  0
  131.5420  158.2540  252.6870 O   0  0  0  0  0  0  0  0  0  0  0  0
  130.7420  157.1130  254.6420 C   0  0  0  0  0  0  0  0  0  0  0  0
  131.0060  156.8590  256.0310 O   0  0  0  0  0  0  0  0  0  0  0  0
  130.5920  155.7680  253.9720 C   0  0  0  0  0  0  0  0  0  0  0  0
  131.1090  155.7860  252.6480 O   0  0  0  0  0  0  0  0  0  0  0  0
  133.5370  160.7710  257.4490 C   0  0  0  0  0  0  0  0  0  0  0  0
  133.5580  161.8300  258.0680 O   0  0  0  0  0  0  0  0  0  0  0  0
  134.8010  160.0140  257.1390 C   0  0  0  0  0  0  0  0  0  0  0  0
  1  2  1  0  0  0  0
  1  9  1  0  0  0  0
  2  3  1  0  0  0  0
  2  4  1  0  0  0  0
  3 12  1  0  0  0  0
  4  5  1  0  0  0  0
  4  6  1  0  0  0  0
  6  7  1  0  0  0  0
  6  8  1  0  0  0  0
  8  9  1  0  0  0  0
  8 10  1  0  0  0  0
 10 11  1  0  0  0  0
 12 13  2  0  0  0  0
 12 14  1  0  0  0  0
M  END
$$$$
