complex
  PyMOL3.0          3D                             0

  4  3  0  0  0  0  0  0  0  0999 V2000
   -4.8630   34.9770   75.7620 O   0  0  0  0  0  0  0  0  0  0  0  0
   -4.1120   37.5740   75.9100 C   0  0  0  0  0  0  0  0  0  0  0  0
   -6.0570   36.7620   74.1140 C   0  0  0  0  0  0  0  0  0  0  0  0
   -4.5460   36.1430   74.8920 S   0  0  0  0  0  0  0  0  0  0  0  0
  1  4  1  0  0  0  0
  2  4  1  0  0  0  0
  3  4  1  0  0  0  0
M  END
$$$$
