complex
  PyMOL3.0          3D                             0

 16 17  0  0  0  0  0  0  0  0999 V2000
    4.8320  -36.3360  -78.2730 Se  0  0  0  0  0  0  0  0  0  0  0  0
    3.2710  -37.2660  -77.5600 C   0  0  0  0  0  0  0  0  0  0  0  0
    3.1470  -37.4290  -76.1900 C   0  0  0  0  0  0  0  0  0  0  0  0
    2.0480  -38.0870  -75.6620 C   0  0  0  0  0  0  0  0  0  0  0  0
    1.0690  -38.5840  -76.5050 C   0  0  0  0  0  0  0  0  0  0  0  0
    1.1920  -38.4230  -77.8750 C   0  0  0  0  0  0  0  0  0  0  0  0
    2.2910  -37.7670  -78.4060 C   0  0  0  0  0  0  0  0  0  0  0  0
    2.3970  -37.6020  -79.9240 C   0  0  0  0  0  0  0  0  0  0  0  0
    2.3310  -38.5630  -80.6160 O   0  0  0  0  0  0  0  0  0  0  0  0
    2.5570  -36.2740  -80.4980 N   0  0  0  0  0  0  0  0  0  0  0  0
    2.6600  -36.0350  -81.9290 C   0  0  0  0  0  0  0  0  0  0  0  0
    3.4690  -36.7880  -82.7180 C   0  0  0  0  0  0  0  0  0  0  0  0
    3.6000  -36.6020  -84.0560 C   0  0  0  0  0  0  0  0  0  0  0  0
    2.8840  -35.5900  -84.6740 C   0  0  0  0  0  0  0  0  0  0  0  0
    2.0310  -34.7750  -83.8950 C   0  0  0  0  0  0  0  0  0  0  0  0
    1.9280  -35.0100  -82.5060 C   0  0  0  0  0  0  0  0  0  0  0  0
  1  2  1  0  0  0  0
  2  3  4  0  0  0  0
  2  7  4  0  0  0  0
  3  4  4  0  0  0  0
  4  5  4  0  0  0  0
  5  6  4  0  0  0  0
  6  7  4  0  0  0  0
  7  8  1  0  0  0  0
  8  9  2  0  0  0  0
  8 10  1  0  0  0  0
 10 11  1  0  0  0  0
 11 12  4  0  0  0  0
 11 16  4  0  0  0  0
 12 13  4  0  0  0  0
 13 14  4  0  0  0  0
 14 15  4  0  0  0  0
 15 16  4  0  0  0  0
M  END
$$$$
