complex
  PyMOL3.0          3D                             0

 11 11  0  0  0  0  0  0  0  0999 V2000
    7.7800 -102.0300 -103.6680 C   0  0  0  0  0  0  0  0  0  0  0  0
    7.2820 -101.6440 -102.2650 C   0  0  0  0  0  0  0  0  0  0  0  0
    6.4610 -100.4550 -102.2680 O   0  0  0  0  0  0  0  0  0  0  0  0
    8.4660 -101.3540 -101.3710 C   0  0  0  0  0  0  0  0  0  0  0  0
    7.9880 -101.2960 -100.0420 O   0  0  0  0  0  0  0  0  0  0  0  0
    9.5700 -102.3850 -101.4970 C   0  0  0  0  0  0  0  0  0  0  0  0
   10.6760 -101.9480 -100.7200 O   0  0  0  0  0  0  0  0  0  0  0  0
   10.0280 -102.5510 -102.9510 C   0  0  0  0  0  0  0  0  0  0  0  0
    8.8550 -102.9870 -103.6660 O   0  0  0  0  0  0  0  0  0  0  0  0
   11.2080 -103.5410 -103.1200 C   0  0  0  0  0  0  0  0  0  0  0  0
   12.1630 -103.1600 -104.1070 O   0  0  0  0  0  0  0  0  0  0  0  0
  1  2  1  0  0  0  0
  1  9  1  0  0  0  0
  2  3  1  0  0  0  0
  2  4  1  0  0  0  0
  4  5  1  0  0  0  0
  4  6  1  0  0  0  0
  6  7  1  0  0  0  0
  6  8  1  0  0  0  0
  8  9  1  0  0  0  0
  8 10  1  0  0  0  0
 10 11  1  0  0  0  0
M  END
$$$$
