complex
  PyMOL3.0          3D                             0

 26 25  0  0  0  0  0  0  0  0999 V2000
   22.4220  -25.2180  -27.2330 N   0  0  0  0  0  0  0  0  0  0  0  0
   22.5980  -26.2480  -28.1880 C   0  0  0  0  0  0  0  0  0  0  0  0
   24.0050  -26.8090  -28.2260 C   0  0  0  0  0  0  0  0  0  0  0  0
   24.1050  -27.8220  -27.2710 O   0  0  0  0  0  0  0  0  0  0  0  0
   25.2270  -28.6630  -27.3880 C   0  0  0  0  0  0  0  0  0  0  0  0
   25.4230  -29.8020  -26.3880 C   0  0  0  0  0  0  0  0  0  0  0  0
   26.0260  -28.4700  -28.2570 O   0  0  0  0  0  0  0  0  0  0  0  0
   21.0190  -24.7200  -27.3930 C   0  0  0  0  0  0  0  0  0  0  0  0
   22.6010  -25.6530  -25.8630 C   0  0  0  0  0  0  0  0  0  0  0  0
   23.3510  -24.0820  -27.4440 C   0  0  0  0  0  0  0  0  0  0  0  0
   22.3870  -25.8910  -29.0660 H   0  0  0  0  0  0  0  0  0  0  0  0
   21.9860  -26.9700  -27.9770 H   0  0  0  0  0  0  0  0  0  0  0  0
   24.6430  -26.1060  -28.0260 H   0  0  0  0  0  0  0  0  0  0  0  0
   24.1890  -27.1710  -29.1070 H   0  0  0  0  0  0  0  0  0  0  0  0
   26.2180  -30.3060  -26.6240 H   0  0  0  0  0  0  0  0  0  0  0  0
   24.6500  -30.3880  -26.4100 H   0  0  0  0  0  0  0  0  0  0  0  0
   25.5250  -29.4350  -25.4960 H   0  0  0  0  0  0  0  0  0  0  0  0
   20.9090  -24.3430  -28.2800 H   0  0  0  0  0  0  0  0  0  0  0  0
   20.8390  -24.0380  -26.7270 H   0  0  0  0  0  0  0  0  0  0  0  0
   20.3990  -25.4580  -27.2760 H   0  0  0  0  0  0  0  0  0  0  0  0
   23.5170  -25.9470  -25.7340 H   0  0  0  0  0  0  0  0  0  0  0  0
   21.9960  -26.3870  -25.6750 H   0  0  0  0  0  0  0  0  0  0  0  0
   22.4110  -24.9150  -25.2620 H   0  0  0  0  0  0  0  0  0  0  0  0
   23.0050  -23.2940  -26.9960 H   0  0  0  0  0  0  0  0  0  0  0  0
   23.4330  -23.9030  -28.3940 H   0  0  0  0  0  0  0  0  0  0  0  0
   24.2220  -24.3050  -27.0800 H   0  0  0  0  0  0  0  0  0  0  0  0
  1  2  1  0  0  0  0
  1  8  1  0  0  0  0
  1  9  1  0  0  0  0
  1 10  1  0  0  0  0
  2  3  1  0  0  0  0
  2 11  1  0  0  0  0
  2 12  1  0  0  0  0
  3  4  1  0  0  0  0
  3 13  1  0  0  0  0
  3 14  1  0  0  0  0
  4  5  1  0  0  0  0
  5  6  1  0  0  0  0
  5  7  2  0  0  0  0
  6 15  1  0  0  0  0
  6 16  1  0  0  0  0
  6 17  1  0  0  0  0
  8 18  1  0  0  0  0
  8 19  1  0  0  0  0
  8 20  1  0  0  0  0
  9 21  1  0  0  0  0
  9 22  1  0  0  0  0
  9 23  1  0  0  0  0
 10 24  1  0  0  0  0
 10 25  1  0  0  0  0
 10 26  1  0  0  0  0
M  END
$$$$
