complex
  PyMOL3.0          3D                             0

 28 30  0  0  0  0  0  0  0  0999 V2000
  311.5140  201.5180  301.2940 P   0  0  0  0  0  0  0  0  0  0  0  0
  313.0220  199.8750  299.5920 P   0  0  0  0  0  0  0  0  0  0  0  0
  310.4270  200.2580  303.3260 C   0  0  0  0  0  0  0  0  0  0  0  0
  310.3100  201.2670  302.3310 O   0  0  0  0  0  0  0  0  0  0  0  0
  310.8060  200.8150  304.6900 C   0  0  0  0  0  0  0  0  0  0  0  0
  310.1700  200.0350  305.6970 O   0  0  0  0  0  0  0  0  0  0  0  0
  312.2860  200.6160  304.9310 C   0  0  0  0  0  0  0  0  0  0  0  0
  312.7610  201.5660  305.8880 O   0  0  0  0  0  0  0  0  0  0  0  0
  312.3810  199.2150  305.4870 C   0  0  0  0  0  0  0  0  0  0  0  0
  313.3500  199.1680  306.5300 O   0  0  0  0  0  0  0  0  0  0  0  0
  310.9950  198.9130  306.0270 C   0  0  0  0  0  0  0  0  0  0  0  0
  306.7250  196.0940  305.0840 N   0  0  0  0  0  0  0  0  0  0  0  0
  310.9690  202.3410  300.1540 O   0  5  0  0  0  0  0  0  0  0  0  0
  312.2960  200.2030  298.3100 O   0  0  0  0  0  0  0  0  0  0  0  0
  306.8760  197.2240  305.8050 C   0  0  0  0  0  0  0  0  0  0  0  0
  305.7970  197.7840  306.3990 N   0  0  0  0  0  0  0  0  0  0  0  0
  312.6870  202.0030  302.1070 O   0  0  0  0  0  0  0  0  0  0  0  0
  314.1250  200.8480  299.9270 O   0  5  0  0  0  0  0  0  0  0  0  0
  308.0660  197.8440  305.9550 N   0  0  0  0  0  0  0  0  0  0  0  0
  311.8940  200.0580  300.7330 O   0  0  0  0  0  0  0  0  0  0  0  0
  313.4420  198.4340  299.7440 O   0  0  0  0  0  0  0  0  0  0  0  0
  309.1780  197.3400  305.3830 C   0  0  0  0  0  0  0  0  0  0  0  0
  309.0830  196.1100  304.5880 C   0  0  0  0  0  0  0  0  0  0  0  0
  307.7470  195.4870  304.4670 C   0  0  0  0  0  0  0  0  0  0  0  0
  307.5760  194.4390  303.8070 O   0  0  0  0  0  0  0  0  0  0  0  0
  310.3230  195.8500  304.1410 N   0  0  0  0  0  0  0  0  0  0  0  0
  311.1410  196.8260  304.6130 C   0  0  0  0  0  0  0  0  0  0  0  0
  310.4540  197.7090  305.3580 N   0  0  0  0  0  0  0  0  0  0  0  0
  1  4  1  0  0  0  0
  1 13  1  0  0  0  0
  1 17  2  0  0  0  0
  1 20  1  0  0  0  0
  2 14  1  0  0  0  0
  2 18  1  0  0  0  0
  2 20  1  0  0  0  0
  2 21  2  0  0  0  0
  3  4  1  0  0  0  0
  3  5  1  0  0  0  0
  5  6  1  0  0  0  0
  5  7  1  0  0  0  0
  6 11  1  0  0  0  0
  7  8  1  0  0  0  0
  7  9  1  0  0  0  0
  9 10  1  0  0  0  0
  9 11  1  0  0  0  0
 11 28  1  0  0  0  0
 12 15  4  0  0  0  0
 12 24  4  0  0  0  0
 15 16  1  0  0  0  0
 15 19  4  0  0  0  0
 19 22  4  0  0  0  0
 22 23  4  0  0  0  0
 22 28  4  0  0  0  0
 23 24  4  0  0  0  0
 23 26  4  0  0  0  0
 24 25  2  0  0  0  0
 26 27  4  0  0  0  0
 27 28  4  0  0  0  0
M  END
$$$$
