complex
  PyMOL3.0          3D                             0

  4  3  0  0  0  0  0  0  0  0999 V2000
   21.6800    1.2470   24.0020 C   0  0  0  0  0  0  0  0  0  0  0  0
   22.8360    0.7120   23.3850 O   0  0  0  0  0  0  0  0  0  0  0  0
   21.1680    0.4130   25.1130 C   0  0  0  0  0  0  0  0  0  0  0  0
   21.9320    0.5460   26.2950 O   0  0  0  0  0  0  0  0  0  0  0  0
  1  2  1  0  0  0  0
  1  3  1  0  0  0  0
  3  4  1  0  0  0  0
M  END
$$$$
