complex
  PyMOL3.0          3D                             0

 27 29  0  0  0  0  0  0  0  0999 V2000
  186.4870  156.5900  102.8980 P   0  0  0  0  0  0  0  0  0  0  0  0
  188.4680  155.3750  104.4190 P   0  0  0  0  0  0  0  0  0  0  0  0
  184.8590  157.0990  100.9560 C   0  0  0  0  0  0  0  0  0  0  0  0
  185.6570  156.1180  101.6080 O   0  0  0  0  0  0  0  0  0  0  0  0
  183.8370  156.4830  100.0140 C   0  0  0  0  0  0  0  0  0  0  0  0
  183.0080  157.5170   99.4870 O   0  0  0  0  0  0  0  0  0  0  0  0
  184.4870  155.7940   98.8290 C   0  0  0  0  0  0  0  0  0  0  0  0
  184.3050  154.3820   98.9330 O   0  0  0  0  0  0  0  0  0  0  0  0
  183.7730  156.3100   97.5970 C   0  0  0  0  0  0  0  0  0  0  0  0
  183.0990  155.2380   96.9390 O   0  0  0  0  0  0  0  0  0  0  0  0
  182.7540  157.3130   98.0990 C   0  0  0  0  0  0  0  0  0  0  0  0
  180.4590  160.9950   95.1450 N   0  0  0  0  0  0  0  0  0  0  0  0
  187.5640  157.5400  102.4450 O   0  0  0  0  0  0  0  0  0  0  0  0
  189.6150  155.5940  103.4660 O   0  0  0  0  0  0  0  0  0  0  0  0
  179.9460  159.8790   95.6880 C   0  0  0  0  0  0  0  0  0  0  0  0
  185.4630  157.0560  103.8990 O   0  0  0  0  0  0  0  0  0  0  0  0
  188.1320  156.5640  105.2830 O   0  5  0  0  0  0  0  0  0  0  0  0
  180.6580  159.0160   96.4310 N   0  0  0  0  0  0  0  0  0  0  0  0
  187.1960  155.2530  103.4420 O   0  0  0  0  0  0  0  0  0  0  0  0
  188.5030  154.0760  105.1710 O   0  0  0  0  0  0  0  0  0  0  0  0
  181.9690  159.2290   96.6790 C   0  0  0  0  0  0  0  0  0  0  0  0
  182.6000  160.4290   96.1230 C   0  0  0  0  0  0  0  0  0  0  0  0
  181.7530  161.3300   95.3160 C   0  0  0  0  0  0  0  0  0  0  0  0
  182.2620  162.4550   94.7680 N   0  0  0  0  0  0  0  0  0  0  0  0
  183.8830  160.4030   96.5140 N   0  0  0  0  0  0  0  0  0  0  0  0
  184.0600  159.2850   97.2590 C   0  0  0  0  0  0  0  0  0  0  0  0
  182.9180  158.5870   97.3610 N   0  0  0  0  0  0  0  0  0  0  0  0
  1  4  1  0  0  0  0
  1 13  1  0  0  0  0
  1 16  1  0  0  0  0
  1 19  1  0  0  0  0
  2 14  1  0  0  0  0
  2 17  1  0  0  0  0
  2 19  1  0  0  0  0
  2 20  2  0  0  0  0
  3  4  1  0  0  0  0
  3  5  1  0  0  0  0
  5  6  1  0  0  0  0
  5  7  1  0  0  0  0
  6 11  1  0  0  0  0
  7  8  1  0  0  0  0
  7  9  1  0  0  0  0
  9 10  1  0  0  0  0
  9 11  1  0  0  0  0
 11 27  1  0  0  0  0
 12 15  4  0  0  0  0
 12 23  4  0  0  0  0
 15 18  4  0  0  0  0
 18 21  4  0  0  0  0
 21 22  4  0  0  0  0
 21 27  4  0  0  0  0
 22 23  4  0  0  0  0
 22 25  4  0  0  0  0
 23 24  1  0  0  0  0
 25 26  4  0  0  0  0
 26 27  4  0  0  0  0
M  END
$$$$
