complex
  PyMOL3.0          3D                             0

 31 33  0  0  0  0  0  0  0  0999 V2000
  142.9880  169.5110  164.7990 P   0  0  0  0  0  0  0  0  0  0  0  0
  144.6030  167.0790  164.4010 P   0  0  0  0  0  0  0  0  0  0  0  0
  146.9810  167.9120  162.7960 P   0  0  0  0  0  0  0  0  0  0  0  0
  141.3490  167.7690  165.9020 C   0  0  0  0  0  0  0  0  0  0  0  0
  142.4650  168.6740  166.0310 O   0  0  0  0  0  0  0  0  0  0  0  0
  141.2980  166.8740  167.1150 C   0  0  0  0  0  0  0  0  0  0  0  0
  140.2950  167.3620  168.0320 O   0  0  0  0  0  0  0  0  0  0  0  0
  140.9100  165.4270  166.8350 C   0  0  0  0  0  0  0  0  0  0  0  0
  141.4530  164.5540  167.8190 O   0  0  0  0  0  0  0  0  0  0  0  0
  139.3860  165.4810  166.9230 C   0  0  0  0  0  0  0  0  0  0  0  0
  138.8350  164.2160  167.2670 O   0  0  0  0  0  0  0  0  0  0  0  0
  139.1880  166.4790  168.0640 C   0  0  0  0  0  0  0  0  0  0  0  0
  134.7780  167.9200  170.2940 N   0  0  0  0  0  0  0  0  0  0  0  0
  141.9260  169.6980  163.7900 O   0  5  0  0  0  0  0  0  0  0  0  0
  143.7390  166.1780  163.6170 O   0  5  0  0  0  0  0  0  0  0  0  0
  146.2610  169.1210  162.3040 O   0  0  0  0  0  0  0  0  0  0  0  0
  135.7600  167.1120  170.7000 C   0  0  0  0  0  0  0  0  0  0  0  0
  143.6310  170.7990  165.3130 O   0  0  0  0  0  0  0  0  0  0  0  0
  144.6710  166.7750  165.8950 O   0  0  0  0  0  0  0  0  0  0  0  0
  147.2770  166.8870  161.7090 O   0  5  0  0  0  0  0  0  0  0  0  0
  136.8880  166.7850  170.0680 N   0  0  0  0  0  0  0  0  0  0  0  0
  144.1540  168.5970  164.2490 O   0  0  0  0  0  0  0  0  0  0  0  0
  146.0930  167.1210  163.8590 O   0  0  0  0  0  0  0  0  0  0  0  0
  148.2800  168.2240  163.5330 O   0  0  0  0  0  0  0  0  0  0  0  0
  136.9610  167.3760  168.8720 C   0  0  0  0  0  0  0  0  0  0  0  0
  136.0260  168.2300  168.3120 C   0  0  0  0  0  0  0  0  0  0  0  0
  134.8780  168.5060  169.0800 C   0  0  0  0  0  0  0  0  0  0  0  0
  133.8890  169.3090  168.6770 N   0  0  0  0  0  0  0  0  0  0  0  0
  136.4380  168.6550  167.0580 N   0  0  0  0  0  0  0  0  0  0  0  0
  137.5920  168.0550  166.8920 C   0  0  0  0  0  0  0  0  0  0  0  0
  137.9700  167.2690  167.9480 N   0  0  0  0  0  0  0  0  0  0  0  0
  1  5  1  0  0  0  0
  1 14  1  0  0  0  0
  1 18  2  0  0  0  0
  1 22  1  0  0  0  0
  2 15  1  0  0  0  0
  2 19  2  0  0  0  0
  2 22  1  0  0  0  0
  2 23  1  0  0  0  0
  3 16  1  0  0  0  0
  3 20  1  0  0  0  0
  3 23  1  0  0  0  0
  3 24  2  0  0  0  0
  4  5  1  0  0  0  0
  4  6  1  0  0  0  0
  6  7  1  0  0  0  0
  6  8  1  0  0  0  0
  7 12  1  0  0  0  0
  8  9  1  0  0  0  0
  8 10  1  0  0  0  0
 10 11  1  0  0  0  0
 10 12  1  0  0  0  0
 12 31  1  0  0  0  0
 13 17  4  0  0  0  0
 13 27  4  0  0  0  0
 17 21  4  0  0  0  0
 21 25  4  0  0  0  0
 25 26  4  0  0  0  0
 25 31  4  0  0  0  0
 26 27  4  0  0  0  0
 26 29  4  0  0  0  0
 27 28  1  0  0  0  0
 29 30  4  0  0  0  0
 30 31  4  0  0  0  0
M  END
$$$$
