complex
  PyMOL3.0          3D                             0

  9  8  0  0  0  0  0  0  0  0999 V2000
   -3.1600  -27.3190  -15.8970 N   0  0  0  0  0  0  0  0  0  0  0  0
   -2.0370  -28.2390  -16.0390 C   0  0  0  0  0  0  0  0  0  0  0  0
   -2.2720  -29.2340  -17.1720 C   0  0  0  0  0  0  0  0  0  0  0  0
   -3.2840  -29.1760  -17.8700 O   0  0  0  0  0  0  0  0  0  0  0  0
   -1.7880  -28.9850  -14.7270 C   0  0  0  0  0  0  0  0  0  0  0  0
   -1.4270  -28.0890  -13.5560 C   0  0  0  0  0  0  0  0  0  0  0  0
    0.8510  -26.6860  -12.3110 C   0  0  0  0  0  0  0  0  0  0  0  0
   -0.0960  -26.7440  -14.0110 Se  0  0  0  0  0  0  0  0  0  0  0  0
   -1.4550  -30.1230  -17.4170 O   0  0  0  0  0  0  0  0  0  0  0  0
  1  2  1  0  0  0  0
  2  3  1  0  0  0  0
  2  5  1  0  0  0  0
  3  4  4  0  0  0  0
  3  9  4  0  0  0  0
  5  6  1  0  0  0  0
  6  8  1  0  0  0  0
  7  8  1  0  0  0  0
M  END
$$$$
