complex
  PyMOL3.0          3D                             0

  7  6  0  0  0  0  0  0  0  0999 V2000
   -4.9900   38.5930   33.7760 C   0  0  0  0  0  0  0  0  0  0  0  0
   -4.1690   37.9600   32.8060 O   0  0  0  0  0  0  0  0  0  0  0  0
   -5.6420   37.5760   34.6580 C   0  0  0  0  0  0  0  0  0  0  0  0
   -5.9480   36.4150   33.8870 O   0  0  0  0  0  0  0  0  0  0  0  0
   -6.3370   35.3100   34.6930 C   0  0  0  0  0  0  0  0  0  0  0  0
   -7.3740   34.5090   33.9700 C   0  0  0  0  0  0  0  0  0  0  0  0
   -8.4670   35.3240   33.5730 O   0  0  0  0  0  0  0  0  0  0  0  0
  1  2  1  0  0  0  0
  1  3  1  0  0  0  0
  3  4  1  0  0  0  0
  4  5  1  0  0  0  0
  5  6  1  0  0  0  0
  6  7  1  0  0  0  0
M  END
$$$$
