complex
  PyMOL3.0          3D                             0

  9  8  0  0  0  0  0  0  0  0999 V2000
   -8.9620    1.2760   16.9790 P   0  0  0  0  0  0  0  0  0  0  0  0
   -9.9160    2.4220   16.3740 O   0  0  0  0  0  0  0  0  0  0  0  0
   -7.8660    0.9230   16.0020 O   0  0  0  0  0  0  0  0  0  0  0  0
   -8.3160    1.6840   18.2830 O   0  5  0  0  0  0  0  0  0  0  0  0
   -9.8580    0.0770   17.2450 O   0  0  0  0  0  0  0  0  0  0  0  0
  -11.0520    3.5600   14.5660 C   0  0  0  0  0  0  0  0  0  0  0  0
  -12.0220    3.5770   13.7780 O   0  0  0  0  0  0  0  0  0  0  0  0
  -10.5160    2.2460   15.1030 C   0  0  0  0  0  0  0  0  0  0  0  0
  -10.5400    4.6460   14.9030 O   0  0  0  0  0  0  0  0  0  0  0  0
  1  2  1  0  0  0  0
  1  3  1  0  0  0  0
  1  4  1  0  0  0  0
  1  5  2  0  0  0  0
  2  8  1  0  0  0  0
  6  7  4  0  0  0  0
  6  8  1  0  0  0  0
  6  9  4  0  0  0  0
M  END
$$$$
