complex
  PyMOL3.0          3D                             0

  9  8  0  0  0  0  0  0  0  0999 V2000
   -7.0240  -24.8840   34.1860 C   0  0  0  0  0  0  0  0  0  0  0  0
   -7.0870  -23.8200   34.8530 O   0  0  0  0  0  0  0  0  0  0  0  0
   -5.9960  -25.2320   33.5390 O   0  5  0  0  0  0  0  0  0  0  0  0
   -8.2400  -25.8020   34.1630 C   0  0  0  0  0  0  0  0  0  0  0  0
   -9.4780  -25.3990   34.9480 C   0  0  0  0  0  0  0  0  0  0  0  0
  -10.5450  -25.2240   34.3120 O   0  0  0  0  0  0  0  0  0  0  0  0
   -9.3950  -25.2900   36.1940 O   0  5  0  0  0  0  0  0  0  0  0  0
   -7.9540  -26.6740   34.4930 H   0  0  0  0  0  0  0  0  0  0  0  0
   -8.5060  -25.9120   33.2320 H   0  0  0  0  0  0  0  0  0  0  0  0
  1  2  4  0  0  0  0
  1  3  4  0  0  0  0
  1  4  1  0  0  0  0
  4  5  1  0  0  0  0
  4  8  1  0  0  0  0
  4  9  1  0  0  0  0
  5  6  4  0  0  0  0
  5  7  4  0  0  0  0
M  END
$$$$
