complex
  PyMOL3.0          3D                             0

  4  3  0  0  0  0  0  0  0  0999 V2000
   -8.7070   56.2440   54.3920 C   0  0  0  0  0  0  0  0  0  0  0  0
   -8.4420   54.9150   53.9670 O   0  0  0  0  0  0  0  0  0  0  0  0
  -10.0780   56.4440   54.9380 C   0  0  0  0  0  0  0  0  0  0  0  0
  -10.3720   55.6680   56.0770 O   0  0  0  0  0  0  0  0  0  0  0  0
  1  2  1  0  0  0  0
  1  3  1  0  0  0  0
  3  4  1  0  0  0  0
M  END
$$$$
