complex
  PyMOL3.0          3D                             0

  5  4  0  0  0  0  0  0  0  0999 V2000
  -42.4920   16.8900  -35.3260 O   0  0  0  0  0  0  0  0  0  0  0  0
  -44.6250   16.3160  -36.2230 O   0  0  0  0  0  0  0  0  0  0  0  0
  -43.2420   14.6260  -35.2640 O   0  5  0  0  0  0  0  0  0  0  0  0
  -44.2690   16.2620  -33.8650 O   0  0  0  0  0  0  0  0  0  0  0  0
  -43.6570   16.0240  -35.1700 S   0  0  0  0  0  0  0  0  0  0  0  0
  1  5  1  0  0  0  0
  2  5  1  0  0  0  0
  3  5  1  0  0  0  0
  4  5  2  0  0  0  0
M  END
$$$$
