complex
  PyMOL3.0          3D                             0

 32 34  0  0  0  0  0  0  0  0999 V2000
  141.6940  103.7990  111.9010 P   0  0  0  0  0  0  0  0  0  0  0  0
  142.7770  104.1990  114.5090 P   0  0  0  0  0  0  0  0  0  0  0  0
  141.9690  103.6030  117.1060 P   0  0  0  0  0  0  0  0  0  0  0  0
  142.7140  102.8010  109.6900 C   0  0  0  0  0  0  0  0  0  0  0  0
  142.1840  102.5720  110.9790 O   0  0  0  0  0  0  0  0  0  0  0  0
  141.6230  102.7210  108.6290 C   0  0  0  0  0  0  0  0  0  0  0  0
  140.5030  103.4800  109.0320 O   0  0  0  0  0  0  0  0  0  0  0  0
  142.0730  103.3050  107.3020 C   0  0  0  0  0  0  0  0  0  0  0  0
  142.4620  102.2840  106.4150 O   0  0  0  0  0  0  0  0  0  0  0  0
  140.8560  104.0310  106.7650 C   0  0  0  0  0  0  0  0  0  0  0  0
  140.2770  103.2950  105.7140 O   0  0  0  0  0  0  0  0  0  0  0  0
  139.8890  104.1260  107.9350 C   0  0  0  0  0  0  0  0  0  0  0  0
  137.5430  108.6140  106.5680 N   0  0  0  0  0  0  0  0  0  0  0  0
  142.4970  105.0190  111.5210 O   0  5  0  0  0  0  0  0  0  0  0  0
  143.1320  105.5680  113.9850 O   0  5  0  0  0  0  0  0  0  0  0  0
  143.1670  104.2280  117.7780 O   0  0  0  0  0  0  0  0  0  0  0  0
  137.5070  107.4020  105.9090 C   0  0  0  0  0  0  0  0  0  0  0  0
  136.8100  107.2820  104.7840 N   0  0  0  0  0  0  0  0  0  0  0  0
  140.2180  104.0540  111.7170 O   0  0  0  0  0  0  0  0  0  0  0  0
  144.0150  103.4820  114.9900 O   0  0  0  0  0  0  0  0  0  0  0  0
  140.7670  103.7450  118.0080 O   0  5  0  0  0  0  0  0  0  0  0  0
  138.1910  106.3160  106.4150 N   0  0  0  0  0  0  0  0  0  0  0  0
  142.0010  103.3080  113.4090 O   0  0  0  0  0  0  0  0  0  0  0  0
  141.7230  104.3730  115.7140 O   0  0  0  0  0  0  0  0  0  0  0  0
  142.2400  102.1410  116.8440 O   0  0  0  0  0  0  0  0  0  0  0  0
  138.9020  106.4330  107.5620 C   0  0  0  0  0  0  0  0  0  0  0  0
  138.9520  107.6440  108.2370 C   0  0  0  0  0  0  0  0  0  0  0  0
  138.2670  108.7410  107.7340 C   0  0  0  0  0  0  0  0  0  0  0  0
  138.3050  109.8190  108.3250 O   0  0  0  0  0  0  0  0  0  0  0  0
  139.7220  107.4790  109.3340 N   0  0  0  0  0  0  0  0  0  0  0  0
  140.1550  106.1990  109.3700 C   0  0  0  0  0  0  0  0  0  0  0  0
  139.6640  105.5410  108.2730 N   0  0  0  0  0  0  0  0  0  0  0  0
  1  5  1  0  0  0  0
  1 14  1  0  0  0  0
  1 19  2  0  0  0  0
  1 23  1  0  0  0  0
  2 15  1  0  0  0  0
  2 20  2  0  0  0  0
  2 23  1  0  0  0  0
  2 24  1  0  0  0  0
  3 16  1  0  0  0  0
  3 21  1  0  0  0  0
  3 24  1  0  0  0  0
  3 25  2  0  0  0  0
  4  5  1  0  0  0  0
  4  6  1  0  0  0  0
  6  7  1  0  0  0  0
  6  8  1  0  0  0  0
  7 12  1  0  0  0  0
  8  9  1  0  0  0  0
  8 10  1  0  0  0  0
 10 11  1  0  0  0  0
 10 12  1  0  0  0  0
 12 32  1  0  0  0  0
 13 17  4  0  0  0  0
 13 28  4  0  0  0  0
 17 18  1  0  0  0  0
 17 22  4  0  0  0  0
 22 26  4  0  0  0  0
 26 27  4  0  0  0  0
 26 32  4  0  0  0  0
 27 28  4  0  0  0  0
 27 30  4  0  0  0  0
 28 29  2  0  0  0  0
 30 31  4  0  0  0  0
 31 32  4  0  0  0  0
M  END
$$$$
