complex
  PyMOL3.0          3D                             0

 25 28  0  0  0  0  0  0  0  0999 V2000
   54.9550   37.2840   61.2000 Cl  0  0  0  0  0  0  0  0  0  0  0  0
   59.2230   35.7860   57.2800 C   0  0  0  0  0  0  0  0  0  0  0  0
   60.4540   36.0320   56.6440 C   0  0  0  0  0  0  0  0  0  0  0  0
   61.4040   34.9940   56.6150 C   0  0  0  0  0  0  0  0  0  0  0  0
   61.1410   33.7850   57.1840 C   0  0  0  0  0  0  0  0  0  0  0  0
   59.9190   33.5440   57.8170 C   0  0  0  0  0  0  0  0  0  0  0  0
   58.9710   34.5290   57.8650 C   0  0  0  0  0  0  0  0  0  0  0  0
   59.6230   38.2790   56.1610 C   0  0  0  0  0  0  0  0  0  0  0  0
   60.6610   37.3300   56.0620 C   0  0  0  0  0  0  0  0  0  0  0  0
   58.2360   36.7360   57.3570 N   0  0  0  0  0  0  0  0  0  0  0  0
   58.4060   37.9150   56.8380 C   0  0  0  0  0  0  0  0  0  0  0  0
   61.0040   39.7980   54.9720 C   0  0  0  0  0  0  0  0  0  0  0  0
   62.0210   38.8910   54.8670 N   0  0  0  0  0  0  0  0  0  0  0  0
   61.8500   37.6900   55.3980 C   0  0  0  0  0  0  0  0  0  0  0  0
   59.8220   39.5490   55.5910 C   0  0  0  0  0  0  0  0  0  0  0  0
   57.3820   38.8180   56.9470 N   0  0  0  0  0  0  0  0  0  0  0  0
   56.2130   38.7900   57.7310 C   0  0  0  0  0  0  0  0  0  0  0  0
   56.1740   38.1190   58.9550 C   0  0  0  0  0  0  0  0  0  0  0  0
   55.0010   38.1270   59.6820 C   0  0  0  0  0  0  0  0  0  0  0  0
   53.8740   38.7780   59.2430 C   0  0  0  0  0  0  0  0  0  0  0  0
   53.9230   39.4400   58.0400 C   0  0  0  0  0  0  0  0  0  0  0  0
   55.0790   39.4540   57.2840 C   0  0  0  0  0  0  0  0  0  0  0  0
   59.6400   32.2160   58.4350 C   0  0  0  0  0  0  0  0  0  0  0  0
   60.3660   31.2660   58.1180 O   0  0  0  0  0  0  0  0  0  0  0  0
   58.6880   32.1330   59.2190 O   0  0  0  0  0  0  0  0  0  0  0  0
  1 19  1  0  0  0  0
  2  3  4  0  0  0  0
  2  7  4  0  0  0  0
  2 10  4  0  0  0  0
  3  4  4  0  0  0  0
  3  9  4  0  0  0  0
  4  5  4  0  0  0  0
  5  6  4  0  0  0  0
  6  7  4  0  0  0  0
  6 23  1  0  0  0  0
  8  9  4  0  0  0  0
  8 11  4  0  0  0  0
  8 15  4  0  0  0  0
  9 14  4  0  0  0  0
 10 11  4  0  0  0  0
 11 16  1  0  0  0  0
 12 13  4  0  0  0  0
 12 15  4  0  0  0  0
 13 14  4  0  0  0  0
 16 17  1  0  0  0  0
 17 18  4  0  0  0  0
 17 22  4  0  0  0  0
 18 19  4  0  0  0  0
 19 20  4  0  0  0  0
 20 21  4  0  0  0  0
 21 22  4  0  0  0  0
 23 24  4  0  0  0  0
 23 25  4  0  0  0  0
M  END
$$$$
