complex
  PyMOL3.0          3D                             0

  4  3  0  0  0  0  0  0  0  0999 V2000
   -1.1620   51.1940   78.8830 C   0  0  0  0  0  0  0  0  0  0  0  0
   -0.4720   52.1530   78.4270 O   0  0  0  0  0  0  0  0  0  0  0  0
   -0.4900   50.3640   80.0290 C   0  0  0  0  0  0  0  0  0  0  0  0
   -2.3190   50.8250   78.5460 O   0  0  0  0  0  0  0  0  0  0  0  0
  1  2  4  0  0  0  0
  1  3  1  0  0  0  0
  1  4  4  0  0  0  0
M  END
$$$$
