complex
  PyMOL3.0          3D                             0

  4  3  0  0  0  0  0  0  0  0999 V2000
    1.5050   67.9990   19.2490 C   0  0  0  0  0  0  0  0  0  0  0  0
    2.4490   68.2080   18.1960 O   0  0  0  0  0  0  0  0  0  0  0  0
    0.9440   66.6290   19.2760 C   0  0  0  0  0  0  0  0  0  0  0  0
    1.8820   65.6580   19.6980 O   0  0  0  0  0  0  0  0  0  0  0  0
  1  2  1  0  0  0  0
  1  3  1  0  0  0  0
  3  4  1  0  0  0  0
M  END
$$$$
