complex
  PyMOL3.0          3D                             0

  5  4  0  0  0  0  0  0  0  0999 V2000
  -48.4920   -4.7600  -34.6110 P   0  0  0  0  0  0  0  0  0  0  0  0
  -49.0030   -4.8570  -36.0410 O   0  0  0  0  0  0  0  0  0  0  0  0
  -49.2620   -3.6510  -33.8570 O   0  0  0  0  0  0  0  0  0  0  0  0
  -47.0020   -4.5320  -34.5820 O   0  5  0  0  0  0  0  0  0  0  0  0
  -48.7500   -6.1270  -33.9700 O   0  0  0  0  0  0  0  0  0  0  0  0
  1  2  1  0  0  0  0
  1  3  1  0  0  0  0
  1  4  1  0  0  0  0
  1  5  2  0  0  0  0
M  END
$$$$
