complex
  PyMOL3.0          3D                             0

 24 23  0  0  0  0  0  0  0  0999 V2000
   -6.0730    4.0160   -8.4220 C   0  0  0  0  0  0  0  0  0  0  0  0
   -6.8870    2.7980   -8.8360 C   0  0  0  0  0  0  0  0  0  0  0  0
   -6.3600    1.5170   -8.1180 C   0  0  0  0  0  0  0  0  0  0  0  0
   -7.1490    0.2820   -8.5300 C   0  0  0  0  0  0  0  0  0  0  0  0
   -6.5320   -1.0230   -8.0400 C   0  0  0  0  0  0  0  0  0  0  0  0
   -7.2540   -2.2260   -8.5950 C   0  0  0  0  0  0  0  0  0  0  0  0
   -8.2210   -2.7260   -7.8260 N   0  0  0  0  0  0  0  0  0  0  0  0
   -9.0740   -3.8000   -8.3110 C   0  0  0  0  0  0  0  0  0  0  0  0
  -10.2070   -4.1090   -7.3340 C   0  0  0  0  0  0  0  0  0  0  0  0
   -6.9040    2.6310  -10.2970 N   0  0  0  0  0  0  0  0  0  0  0  0
   -6.9930   -2.6860   -9.7030 O   0  0  0  0  0  0  0  0  0  0  0  0
   -8.2680   -5.0620   -8.5880 C   0  0  0  0  0  0  0  0  0  0  0  0
   -7.5340   -5.7990   -7.1070 S   0  0  0  0  0  0  0  0  0  0  0  0
  -10.2310   -3.5870   -6.2240 O   0  0  0  0  0  0  0  0  0  0  0  0
   -6.2910    4.3830   -7.2110 O   0  0  0  0  0  0  0  0  0  0  0  0
   -5.3110    4.5760   -9.1680 O   0  0  0  0  0  0  0  0  0  0  0  0
  -11.1700   -4.9240   -7.7740 N   0  0  0  0  0  0  0  0  0  0  0  0
  -12.3660   -5.1570   -6.9920 C   0  0  0  0  0  0  0  0  0  0  0  0
  -13.4000   -5.8750   -7.8430 C   0  0  0  0  0  0  0  0  0  0  0  0
  -12.0400   -5.9450   -5.7090 C   0  0  0  0  0  0  0  0  0  0  0  0
  -13.1800   -5.8720   -4.7110 C   0  0  0  0  0  0  0  0  0  0  0  0
  -11.6840   -7.3940   -6.0140 C   0  0  0  0  0  0  0  0  0  0  0  0
  -14.5650   -5.9340   -7.5200 O   0  0  0  0  0  0  0  0  0  0  0  0
  -12.9190   -6.3930   -8.9470 O   0  0  0  0  0  0  0  0  0  0  0  0
  1  2  1  0  0  0  0
  1 15  4  0  0  0  0
  1 16  4  0  0  0  0
  2  3  1  0  0  0  0
  2 10  1  0  0  0  0
  3  4  1  0  0  0  0
  4  5  1  0  0  0  0
  5  6  1  0  0  0  0
  6  7  1  0  0  0  0
  6 11  2  0  0  0  0
  7  8  1  0  0  0  0
  8  9  1  0  0  0  0
  8 12  1  0  0  0  0
  9 14  2  0  0  0  0
  9 17  1  0  0  0  0
 12 13  1  0  0  0  0
 17 18  1  0  0  0  0
 18 19  1  0  0  0  0
 18 20  1  0  0  0  0
 19 23  4  0  0  0  0
 19 24  4  0  0  0  0
 20 21  1  0  0  0  0
 20 22  1  0  0  0  0
M  END
$$$$
