complex
  PyMOL3.0          3D                             0

  5  4  0  0  0  0  0  0  0  0999 V2000
   49.9280   32.7770   59.3440 O   0  0  0  0  0  0  0  0  0  0  0  0
   50.5030   30.8940   60.6860 O   0  0  0  0  0  0  0  0  0  0  0  0
   48.6530   32.2670   61.2980 O   0  5  0  0  0  0  0  0  0  0  0  0
   50.8760   33.1000   61.5110 O   0  0  0  0  0  0  0  0  0  0  0  0
   49.9890   32.2600   60.7100 S   0  0  0  0  0  0  0  0  0  0  0  0
  1  5  1  0  0  0  0
  2  5  1  0  0  0  0
  3  5  1  0  0  0  0
  4  5  2  0  0  0  0
M  END
$$$$
