complex
  PyMOL3.0          3D                             0

  5  4  0  0  0  0  0  0  0  0999 V2000
  -55.4220  -82.8700    3.8220 O   0  0  0  0  0  0  0  0  0  0  0  0
  -57.1350  -81.2780    3.4950 O   0  0  0  0  0  0  0  0  0  0  0  0
  -54.9640  -80.5330    4.2090 O   0  5  0  0  0  0  0  0  0  0  0  0
  -56.3340  -81.7490    5.7150 O   0  0  0  0  0  0  0  0  0  0  0  0
  -55.9590  -81.6040    4.3110 S   0  0  0  0  0  0  0  0  0  0  0  0
  1  5  1  0  0  0  0
  2  5  1  0  0  0  0
  3  5  1  0  0  0  0
  4  5  2  0  0  0  0
M  END
$$$$
