complex
  PyMOL3.0          3D                             0

 32 34  0  0  0  0  0  0  0  0999 V2000
  276.1200  427.6140  301.4890 P   0  0  0  0  0  0  0  0  0  0  0  0
  276.5570  425.9530  299.1140 P   0  0  0  0  0  0  0  0  0  0  0  0
  274.9710  423.5630  298.4600 P   0  0  0  0  0  0  0  0  0  0  0  0
  277.2810  426.7680  303.6880 C   0  0  0  0  0  0  0  0  0  0  0  0
  277.4070  427.5000  302.4420 O   0  0  0  0  0  0  0  0  0  0  0  0
  277.7550  427.6270  304.8360 C   0  0  0  0  0  0  0  0  0  0  0  0
  278.1290  428.9380  304.3370 O   0  0  0  0  0  0  0  0  0  0  0  0
  276.7280  427.8860  305.9480 C   0  0  0  0  0  0  0  0  0  0  0  0
  277.3510  427.9250  307.2260 O   0  0  0  0  0  0  0  0  0  0  0  0
  276.1560  429.2500  305.5570 C   0  0  0  0  0  0  0  0  0  0  0  0
  275.5950  429.9510  306.6440 O   0  0  0  0  0  0  0  0  0  0  0  0
  277.4050  429.9380  305.0170 C   0  0  0  0  0  0  0  0  0  0  0  0
  278.2970  434.7780  303.6740 N   0  0  0  0  0  0  0  0  0  0  0  0
  274.8830  427.5740  302.3230 O   0  5  0  0  0  0  0  0  0  0  0  0
  278.0190  426.1620  298.8950 O   0  5  0  0  0  0  0  0  0  0  0  0
  275.0140  423.7200  296.9610 O   0  0  0  0  0  0  0  0  0  0  0  0
  278.8090  434.0700  304.7350 C   0  0  0  0  0  0  0  0  0  0  0  0
  279.6620  434.7240  305.5350 N   0  0  0  0  0  0  0  0  0  0  0  0
  276.3010  428.7600  300.5500 O   0  0  0  0  0  0  0  0  0  0  0  0
  275.5720  426.6770  298.2590 O   0  0  0  0  0  0  0  0  0  0  0  0
  273.7530  424.2030  299.0790 O   0  5  0  0  0  0  0  0  0  0  0  0
  278.5020  432.7990  304.9910 N   0  0  0  0  0  0  0  0  0  0  0  0
  276.2240  426.2490  300.6520 O   0  0  0  0  0  0  0  0  0  0  0  0
  276.2400  424.3870  299.0210 O   0  0  0  0  0  0  0  0  0  0  0  0
  275.1640  422.1340  298.9010 O   0  0  0  0  0  0  0  0  0  0  0  0
  277.6290  432.2920  304.0870 C   0  0  0  0  0  0  0  0  0  0  0  0
  277.0670  432.9270  303.0000 C   0  0  0  0  0  0  0  0  0  0  0  0
  277.3990  434.2770  302.7320 C   0  0  0  0  0  0  0  0  0  0  0  0
  276.9930  434.9950  301.8070 O   0  0  0  0  0  0  0  0  0  0  0  0
  276.2210  432.0650  302.3150 N   0  0  0  0  0  0  0  0  0  0  0  0
  276.2830  430.9450  302.9930 C   0  0  0  0  0  0  0  0  0  0  0  0
  277.1200  431.0140  304.0770 N   0  0  0  0  0  0  0  0  0  0  0  0
  1  5  1  0  0  0  0
  1 14  1  0  0  0  0
  1 19  2  0  0  0  0
  1 23  1  0  0  0  0
  2 15  1  0  0  0  0
  2 20  2  0  0  0  0
  2 23  1  0  0  0  0
  2 24  1  0  0  0  0
  3 16  1  0  0  0  0
  3 21  1  0  0  0  0
  3 24  1  0  0  0  0
  3 25  2  0  0  0  0
  4  5  1  0  0  0  0
  4  6  1  0  0  0  0
  6  7  1  0  0  0  0
  6  8  1  0  0  0  0
  7 12  1  0  0  0  0
  8  9  1  0  0  0  0
  8 10  1  0  0  0  0
 10 11  1  0  0  0  0
 10 12  1  0  0  0  0
 12 32  1  0  0  0  0
 13 17  4  0  0  0  0
 13 28  4  0  0  0  0
 17 18  1  0  0  0  0
 17 22  4  0  0  0  0
 22 26  4  0  0  0  0
 26 27  4  0  0  0  0
 26 32  4  0  0  0  0
 27 28  4  0  0  0  0
 27 30  4  0  0  0  0
 28 29  2  0  0  0  0
 30 31  4  0  0  0  0
 31 32  4  0  0  0  0
M  END
$$$$
