complex
  PyMOL3.0          3D                             0

 12 11  0  0  0  0  0  0  0  0999 V2000
   22.4610   17.7260   13.3720 C   0  0  0  0  0  0  0  0  0  0  0  0
   21.2640   17.6970   13.5450 O   0  0  0  0  0  0  0  0  0  0  0  0
   23.0440   18.8690   12.5830 C   0  0  0  0  0  0  0  0  0  0  0  0
   23.2080   16.8280   13.7120 O   0  0  0  0  0  0  0  0  0  0  0  0
   23.0630   18.4730   11.1770 C   0  0  0  0  0  0  0  0  0  0  0  0
   23.8750   19.4000    9.1710 O   0  0  0  0  0  0  0  0  0  0  0  0
   23.1010   19.5400   10.1140 C   0  0  0  0  0  0  0  0  0  0  0  0
   22.2940   20.4480   10.2080 O   0  0  0  0  0  0  0  0  0  0  0  0
   24.0560   19.0840   12.9260 H   0  0  0  0  0  0  0  0  0  0  0  0
   22.4350   19.7640   12.7130 H   0  0  0  0  0  0  0  0  0  0  0  0
   22.1320   17.9330   11.0290 H   0  0  0  0  0  0  0  0  0  0  0  0
   23.9030   17.7970   11.0250 H   0  0  0  0  0  0  0  0  0  0  0  0
  1  2  4  0  0  0  0
  1  3  1  0  0  0  0
  1  4  4  0  0  0  0
  3  5  1  0  0  0  0
  3  9  1  0  0  0  0
  3 10  1  0  0  0  0
  5  7  1  0  0  0  0
  5 11  1  0  0  0  0
  5 12  1  0  0  0  0
  6  7  4  0  0  0  0
  7  8  4  0  0  0  0
M  END
$$$$
