complex
  PyMOL3.0          3D                             0

 14 14  0  0  0  0  0  0  0  0999 V2000
  191.0440  109.8080  243.6990 C   0  0  0  0  0  0  0  0  0  0  0  0
  191.5120  111.2450  243.9920 C   0  0  0  0  0  0  0  0  0  0  0  0
  190.4990  112.2090  243.5830 N   0  0  0  0  0  0  0  0  0  0  0  0
  192.8440  111.5340  243.2880 C   0  0  0  0  0  0  0  0  0  0  0  0
  193.8710  110.7610  243.8990 O   0  0  0  0  0  0  0  0  0  0  0  0
  192.7710  111.2180  241.7970 C   0  0  0  0  0  0  0  0  0  0  0  0
  192.0200  112.2240  241.1270 O   0  0  0  0  0  0  0  0  0  0  0  0
  192.1140  109.8620  241.5530 C   0  0  0  0  0  0  0  0  0  0  0  0
  191.9670  109.1710  242.8010 O   0  0  0  0  0  0  0  0  0  0  0  0
  192.9290  108.9650  240.6510 C   0  0  0  0  0  0  0  0  0  0  0  0
  192.9710  109.4660  239.3220 O   0  0  0  0  0  0  0  0  0  0  0  0
  190.1060  113.2720  244.3040 C   0  0  0  0  0  0  0  0  0  0  0  0
  189.2440  114.0430  243.8950 O   0  0  0  0  0  0  0  0  0  0  0  0
  190.7770  113.4710  245.6370 C   0  0  0  0  0  0  0  0  0  0  0  0
  1  2  1  0  0  0  0
  1  9  1  0  0  0  0
  2  3  1  0  0  0  0
  2  4  1  0  0  0  0
  3 12  1  0  0  0  0
  4  5  1  0  0  0  0
  4  6  1  0  0  0  0
  6  7  1  0  0  0  0
  6  8  1  0  0  0  0
  8  9  1  0  0  0  0
  8 10  1  0  0  0  0
 10 11  1  0  0  0  0
 12 13  2  0  0  0  0
 12 14  1  0  0  0  0
M  END
$$$$
