complex
  PyMOL3.0          3D                             0

  4  3  0  0  0  0  0  0  0  0999 V2000
   50.0580   42.7340   74.0230 C   0  0  0  0  0  0  0  0  0  0  0  0
   50.1140   41.7290   73.2600 O   0  0  0  0  0  0  0  0  0  0  0  0
   48.9420   42.6570   75.1300 C   0  0  0  0  0  0  0  0  0  0  0  0
   50.7890   43.7680   74.0200 O   0  0  0  0  0  0  0  0  0  0  0  0
  1  2  4  0  0  0  0
  1  3  1  0  0  0  0
  1  4  4  0  0  0  0
M  END
$$$$
