complex
  PyMOL3.0          3D                             0

 25 28  0  0  0  0  0  0  0  0999 V2000
   73.8150   53.6140  111.8190 Cl  0  0  0  0  0  0  0  0  0  0  0  0
   78.3280   57.4920  112.2620 C   0  0  0  0  0  0  0  0  0  0  0  0
   79.3280   58.3230  112.8020 C   0  0  0  0  0  0  0  0  0  0  0  0
   80.4540   58.6090  112.0070 C   0  0  0  0  0  0  0  0  0  0  0  0
   80.5730   58.0980  110.7520 C   0  0  0  0  0  0  0  0  0  0  0  0
   79.5790   57.2720  110.2190 C   0  0  0  0  0  0  0  0  0  0  0  0
   78.4710   56.9720  110.9610 C   0  0  0  0  0  0  0  0  0  0  0  0
   77.9600   58.4660  114.8200 C   0  0  0  0  0  0  0  0  0  0  0  0
   79.1350   58.8290  114.1340 C   0  0  0  0  0  0  0  0  0  0  0  0
   77.1970   57.1600  112.9640 N   0  0  0  0  0  0  0  0  0  0  0  0
   77.0060   57.6080  114.1690 C   0  0  0  0  0  0  0  0  0  0  0  0
   78.7250   59.7650  116.6510 C   0  0  0  0  0  0  0  0  0  0  0  0
   79.8690   60.1270  116.0000 N   0  0  0  0  0  0  0  0  0  0  0  0
   80.0650   59.6700  114.7740 C   0  0  0  0  0  0  0  0  0  0  0  0
   77.7690   58.9600  116.1220 C   0  0  0  0  0  0  0  0  0  0  0  0
   75.8590   57.2440  114.8230 N   0  0  0  0  0  0  0  0  0  0  0  0
   74.7370   56.5020  114.4030 C   0  0  0  0  0  0  0  0  0  0  0  0
   74.8320   55.5210  113.4160 C   0  0  0  0  0  0  0  0  0  0  0  0
   73.6950   54.8270  113.0560 C   0  0  0  0  0  0  0  0  0  0  0  0
   72.4770   55.0660  113.6440 C   0  0  0  0  0  0  0  0  0  0  0  0
   72.3960   56.0290  114.6220 C   0  0  0  0  0  0  0  0  0  0  0  0
   73.5110   56.7460  115.0060 C   0  0  0  0  0  0  0  0  0  0  0  0
   79.7220   56.7290  108.8410 C   0  0  0  0  0  0  0  0  0  0  0  0
   80.5950   57.2190  108.1190 O   0  0  0  0  0  0  0  0  0  0  0  0
   78.9480   55.8300  108.4900 O   0  0  0  0  0  0  0  0  0  0  0  0
  1 19  1  0  0  0  0
  2  3  4  0  0  0  0
  2  7  4  0  0  0  0
  2 10  4  0  0  0  0
  3  4  4  0  0  0  0
  3  9  4  0  0  0  0
  4  5  4  0  0  0  0
  5  6  4  0  0  0  0
  6  7  4  0  0  0  0
  6 23  1  0  0  0  0
  8  9  4  0  0  0  0
  8 11  4  0  0  0  0
  8 15  4  0  0  0  0
  9 14  4  0  0  0  0
 10 11  4  0  0  0  0
 11 16  1  0  0  0  0
 12 13  4  0  0  0  0
 12 15  4  0  0  0  0
 13 14  4  0  0  0  0
 16 17  1  0  0  0  0
 17 18  4  0  0  0  0
 17 22  4  0  0  0  0
 18 19  4  0  0  0  0
 19 20  4  0  0  0  0
 20 21  4  0  0  0  0
 21 22  4  0  0  0  0
 23 24  4  0  0  0  0
 23 25  4  0  0  0  0
M  END
$$$$
