complex
  PyMOL3.0          3D                             0

 13 12  0  0  0  0  0  0  0  0999 V2000
  -53.0780  -14.5200  -17.6440 C   0  0  0  0  0  0  0  0  0  0  0  0
  -52.7800  -13.6110  -18.8360 C   0  0  0  0  0  0  0  0  0  0  0  0
  -53.4550  -13.7200  -19.8940 O   0  0  0  0  0  0  0  0  0  0  0  0
  -51.8620  -12.7520  -18.7620 O   0  0  0  0  0  0  0  0  0  0  0  0
  -52.1340  -15.7230  -17.6320 C   0  0  0  0  0  0  0  0  0  0  0  0
  -52.3570  -16.5900  -18.8700 C   0  0  0  0  0  0  0  0  0  0  0  0
  -51.8820  -16.2470  -19.9850 O   0  0  0  0  0  0  0  0  0  0  0  0
  -53.0120  -17.6610  -18.7720 O   0  0  0  0  0  0  0  0  0  0  0  0
  -52.4030  -16.5670  -16.3870 C   0  0  0  0  0  0  0  0  0  0  0  0
  -51.9310  -15.8280  -15.1370 C   0  0  0  0  0  0  0  0  0  0  0  0
  -50.9730  -15.0140  -15.2080 O   0  0  0  0  0  0  0  0  0  0  0  0
  -52.4980  -16.0380  -14.0320 O   0  0  0  0  0  0  0  0  0  0  0  0
  -50.8110  -15.2620  -17.6200 O   0  0  0  0  0  0  0  0  0  0  0  0
  1  2  1  0  0  0  0
  1  5  1  0  0  0  0
  2  3  4  0  0  0  0
  2  4  4  0  0  0  0
  5  6  1  0  0  0  0
  5  9  1  0  0  0  0
  5 13  1  0  0  0  0
  6  7  4  0  0  0  0
  6  8  4  0  0  0  0
  9 10  1  0  0  0  0
 10 11  4  0  0  0  0
 10 12  4  0  0  0  0
M  END
$$$$
