complex
  PyMOL3.0          3D                             0

  7  6  0  0  0  0  0  0  0  0999 V2000
   -8.2700   39.7040   29.3240 C   0  0  0  0  0  0  0  0  0  0  0  0
   -9.1190   38.5690   29.3410 O   0  0  0  0  0  0  0  0  0  0  0  0
   -6.8350   39.2970   29.2360 C   0  0  0  0  0  0  0  0  0  0  0  0
   -6.1590   39.6680   30.4300 O   0  0  0  0  0  0  0  0  0  0  0  0
   -5.7430   41.0260   30.3990 C   0  0  0  0  0  0  0  0  0  0  0  0
   -4.5630   41.2100   31.2990 C   0  0  0  0  0  0  0  0  0  0  0  0
   -3.7960   42.3260   30.8800 O   0  0  0  0  0  0  0  0  0  0  0  0
  1  2  1  0  0  0  0
  1  3  1  0  0  0  0
  3  4  1  0  0  0  0
  4  5  1  0  0  0  0
  5  6  1  0  0  0  0
  6  7  1  0  0  0  0
M  END
$$$$
