complex
  PyMOL3.0          3D                             0

  5  4  0  0  0  0  0  0  0  0999 V2000
  -50.1770 -113.9470  -16.0950 O   0  0  0  0  0  0  0  0  0  0  0  0
  -49.3110 -111.7490  -16.2030 O   0  0  0  0  0  0  0  0  0  0  0  0
  -51.4650 -112.0940  -15.3300 O   0  5  0  0  0  0  0  0  0  0  0  0
  -49.5470 -112.7920  -14.1240 O   0  0  0  0  0  0  0  0  0  0  0  0
  -50.1280 -112.6470  -15.4380 S   0  0  0  0  0  0  0  0  0  0  0  0
  1  5  1  0  0  0  0
  2  5  1  0  0  0  0
  3  5  1  0  0  0  0
  4  5  2  0  0  0  0
M  END
$$$$
