complex
  PyMOL3.0          3D                             0

 14 14  0  0  0  0  0  0  0  0999 V2000
  198.4940  197.4830  269.4310 C   0  0  0  0  0  0  0  0  0  0  0  0
  197.7190  196.1780  269.1530 C   0  0  0  0  0  0  0  0  0  0  0  0
  198.4210  195.2740  268.2410 N   0  0  0  0  0  0  0  0  0  0  0  0
  196.2870  196.4760  268.6760 C   0  0  0  0  0  0  0  0  0  0  0  0
  195.5510  195.2620  268.5860 O   0  0  0  0  0  0  0  0  0  0  0  0
  195.5840  197.4410  269.6250 C   0  0  0  0  0  0  0  0  0  0  0  0
  194.3190  197.8150  269.0920 O   0  0  0  0  0  0  0  0  0  0  0  0
  196.4330  198.6940  269.8340 C   0  0  0  0  0  0  0  0  0  0  0  0
  197.7290  198.3220  270.3330 O   0  0  0  0  0  0  0  0  0  0  0  0
  195.8380  199.6550  270.8360 C   0  0  0  0  0  0  0  0  0  0  0  0
  196.7500  200.6940  271.1660 O   0  0  0  0  0  0  0  0  0  0  0  0
  198.7710  195.4960  266.9570 C   0  0  0  0  0  0  0  0  0  0  0  0
  198.5230  196.5450  266.3560 O   0  0  0  0  0  0  0  0  0  0  0  0
  199.4900  194.3660  266.2870 C   0  0  0  0  0  0  0  0  0  0  0  0
  1  2  1  0  0  0  0
  1  9  1  0  0  0  0
  2  3  1  0  0  0  0
  2  4  1  0  0  0  0
  3 12  1  0  0  0  0
  4  5  1  0  0  0  0
  4  6  1  0  0  0  0
  6  7  1  0  0  0  0
  6  8  1  0  0  0  0
  8  9  1  0  0  0  0
  8 10  1  0  0  0  0
 10 11  1  0  0  0  0
 12 13  2  0  0  0  0
 12 14  1  0  0  0  0
M  END
$$$$
