complex
  PyMOL3.0          3D                             0

  5  4  0  0  0  0  0  0  0  0999 V2000
  -28.5450   55.7440  -27.2860 O   0  0  0  0  0  0  0  0  0  0  0  0
  -27.2510   53.7690  -26.9520 O   0  0  0  0  0  0  0  0  0  0  0  0
  -27.2470   55.4900  -25.3020 O   0  5  0  0  0  0  0  0  0  0  0  0
  -29.1980   54.1570  -25.6300 O   0  0  0  0  0  0  0  0  0  0  0  0
  -28.0600   54.7900  -26.2930 S   0  0  0  0  0  0  0  0  0  0  0  0
  1  5  1  0  0  0  0
  2  5  1  0  0  0  0
  3  5  1  0  0  0  0
  4  5  2  0  0  0  0
M  END
$$$$
