complex
  PyMOL3.0          3D                             0

 13 12  0  0  0  0  0  0  0  0999 V2000
  -42.6580   -4.0260  -45.0200 C   0  0  0  0  0  0  0  0  0  0  0  0
  -43.9050   -4.5430  -44.3050 C   0  0  0  0  0  0  0  0  0  0  0  0
  -44.9330   -4.8510  -44.9650 O   0  0  0  0  0  0  0  0  0  0  0  0
  -43.9100   -4.6560  -43.0520 O   0  0  0  0  0  0  0  0  0  0  0  0
  -41.6380   -5.1520  -45.1920 C   0  0  0  0  0  0  0  0  0  0  0  0
  -40.4000   -4.6020  -45.8950 C   0  0  0  0  0  0  0  0  0  0  0  0
  -40.5240   -3.8120  -46.8680 O   0  0  0  0  0  0  0  0  0  0  0  0
  -39.2530   -4.9330  -45.4980 O   0  0  0  0  0  0  0  0  0  0  0  0
  -42.2440   -6.3030  -45.9980 C   0  0  0  0  0  0  0  0  0  0  0  0
  -42.5960   -5.8700  -47.4210 C   0  0  0  0  0  0  0  0  0  0  0  0
  -41.7220   -5.9140  -48.3280 O   0  0  0  0  0  0  0  0  0  0  0  0
  -43.7600   -5.4750  -47.6940 O   0  0  0  0  0  0  0  0  0  0  0  0
  -41.2710   -5.6300  -43.9270 O   0  0  0  0  0  0  0  0  0  0  0  0
  1  2  1  0  0  0  0
  1  5  1  0  0  0  0
  2  3  4  0  0  0  0
  2  4  4  0  0  0  0
  5  6  1  0  0  0  0
  5  9  1  0  0  0  0
  5 13  1  0  0  0  0
  6  7  4  0  0  0  0
  6  8  4  0  0  0  0
  9 10  1  0  0  0  0
 10 11  4  0  0  0  0
 10 12  4  0  0  0  0
M  END
$$$$
