complex
  PyMOL3.0          3D                             0

 80 83  0  0  0  0  0  0  0  0999 V2000
   37.3690  -11.1590   -3.9530 C   0  0  0  0  0  0  0  0  0  0  0  0
   37.4590   -9.8280   -4.0290 C   0  0  0  0  0  0  0  0  0  0  0  0
   37.6450   -9.1260   -2.7310 C   0  0  0  0  0  0  0  0  0  0  0  0
   36.5800   -8.9660   -1.8310 C   0  0  0  0  0  0  0  0  0  0  0  0
   36.7540   -8.3160   -0.6130 C   0  0  0  0  0  0  0  0  0  0  0  0
   37.9960   -7.8120   -0.2440 C   0  0  0  0  0  0  0  0  0  0  0  0
   39.0600   -7.9680   -1.1180 C   0  0  0  0  0  0  0  0  0  0  0  0
   38.8790   -8.6170   -2.3360 C   0  0  0  0  0  0  0  0  0  0  0  0
   37.3990   -9.1540   -5.4110 C   0  0  0  0  0  0  0  0  0  0  0  0
   36.6040   -7.7990   -5.3940 C   0  0  0  0  0  0  0  0  0  0  0  0
   37.6250   -6.7370   -5.7390 C   0  0  0  0  0  0  0  0  0  0  0  0
   38.8540   -7.4850   -6.1710 C   0  0  0  0  0  0  0  0  0  0  0  0
   40.0730   -6.6690   -6.2710 C   0  0  0  0  0  0  0  0  0  0  0  0
   40.5340   -6.5530   -4.8090 C   0  0  0  0  0  0  0  0  0  0  0  0
   41.5430   -5.4510   -4.5990 C   0  0  0  0  0  0  0  0  0  0  0  0
   41.3090   -4.7400   -3.2610 C   0  0  0  0  0  0  0  0  0  0  0  0
   42.4680   -4.9830   -2.3210 C   0  0  0  0  0  0  0  0  0  0  0  0
   42.7110   -3.7100   -1.4540 C   0  0  0  0  0  0  0  0  0  0  0  0
   42.5680   -3.9750    0.0460 C   0  0  0  0  0  0  0  0  0  0  0  0
   43.2270   -5.3040    0.4560 C   0  0  0  0  0  0  0  0  0  0  0  0
   43.6220   -5.2660    1.9140 C   0  0  0  0  0  0  0  0  0  0  0  0
   44.4100   -6.5540    2.2790 C   0  0  0  0  0  0  0  0  0  0  0  0
   45.2850   -6.9460    1.4730 O   0  0  0  0  0  0  0  0  0  0  0  0
   44.1090   -7.1130    3.3600 O   0  0  0  0  0  0  0  0  0  0  0  0
   38.7560   -8.8150   -5.9890 C   0  0  0  0  0  0  0  0  0  0  0  0
   39.7820   -9.8030   -6.3320 C   0  0  0  0  0  0  0  0  0  0  0  0
   40.2330   -9.9900   -7.6440 C   0  0  0  0  0  0  0  0  0  0  0  0
   41.2030  -10.9450   -7.9430 C   0  0  0  0  0  0  0  0  0  0  0  0
   41.7430  -11.7400   -6.9400 C   0  0  0  0  0  0  0  0  0  0  0  0
   41.2990  -11.5680   -5.6330 C   0  0  0  0  0  0  0  0  0  0  0  0
   40.3300  -10.6140   -5.3360 C   0  0  0  0  0  0  0  0  0  0  0  0
   35.4410   -7.9530   -6.4100 C   0  0  0  0  0  0  0  0  0  0  0  0
   34.9720   -6.7400   -7.0660 N   0  0  0  0  0  0  0  0  0  0  0  0
   33.8530   -5.7170   -6.4650 S   0  0  0  0  0  0  0  0  0  0  0  0
   33.6010   -4.7770   -7.5010 O   0  0  0  0  0  0  0  0  0  0  0  0
   34.6280   -4.9400   -5.2580 N   0  0  0  0  0  0  0  0  0  0  0  0
   32.7790   -6.4360   -5.8780 O   0  0  0  0  0  0  0  0  0  0  0  0
   35.9900   -8.9700   -7.4030 C   0  0  0  0  0  0  0  0  0  0  0  0
   36.6430   -9.9880   -6.4840 C   0  0  0  0  0  0  0  0  0  0  0  0
   37.2580  -11.7340   -4.6730 H   0  0  0  0  0  0  0  0  0  0  0  0
   37.4020  -11.6420   -3.1600 H   0  0  0  0  0  0  0  0  0  0  0  0
   35.7290   -9.2890   -2.0210 H   0  0  0  0  0  0  0  0  0  0  0  0
   36.0410   -8.2100   -0.0260 H   0  0  0  0  0  0  0  0  0  0  0  0
   38.1130   -7.3780    0.5700 H   0  0  0  0  0  0  0  0  0  0  0  0
   39.8960   -7.6350   -0.8820 H   0  0  0  0  0  0  0  0  0  0  0  0
   39.6110   -8.7130   -2.9020 H   0  0  0  0  0  0  0  0  0  0  0  0
   36.2290   -7.6190   -4.5170 H   0  0  0  0  0  0  0  0  0  0  0  0
   37.3190   -6.1280   -6.4290 H   0  0  0  0  0  0  0  0  0  0  0  0
   37.8140   -6.1400   -4.9980 H   0  0  0  0  0  0  0  0  0  0  0  0
   39.9060   -5.8050   -6.6790 H   0  0  0  0  0  0  0  0  0  0  0  0
   40.7440   -7.0780   -6.8410 H   0  0  0  0  0  0  0  0  0  0  0  0
   39.7810   -6.4110   -4.2150 H   0  0  0  0  0  0  0  0  0  0  0  0
   40.9080   -7.3900   -4.4920 H   0  0  0  0  0  0  0  0  0  0  0  0
   42.4520   -5.7900   -4.6240 H   0  0  0  0  0  0  0  0  0  0  0  0
   41.5120   -4.7970   -5.3150 H   0  0  0  0  0  0  0  0  0  0  0  0
   41.1730   -3.7870   -3.3740 H   0  0  0  0  0  0  0  0  0  0  0  0
   40.4820   -5.0210   -2.8390 H   0  0  0  0  0  0  0  0  0  0  0  0
   43.2510   -5.2450   -2.8300 H   0  0  0  0  0  0  0  0  0  0  0  0
   42.2950   -5.7740   -1.7870 H   0  0  0  0  0  0  0  0  0  0  0  0
   43.5880   -3.3370   -1.6350 H   0  0  0  0  0  0  0  0  0  0  0  0
   42.1060   -2.9980   -1.7160 H   0  0  0  0  0  0  0  0  0  0  0  0
   42.9480   -3.2310    0.5390 H   0  0  0  0  0  0  0  0  0  0  0  0
   41.6280   -3.9640    0.2840 H   0  0  0  0  0  0  0  0  0  0  0  0
   44.0000   -5.4980   -0.0980 H   0  0  0  0  0  0  0  0  0  0  0  0
   42.6380   -6.0550    0.2860 H   0  0  0  0  0  0  0  0  0  0  0  0
   42.8360   -5.1760    2.4750 H   0  0  0  0  0  0  0  0  0  0  0  0
   44.1540   -4.4760    2.1000 H   0  0  0  0  0  0  0  0  0  0  0  0
   39.8940   -9.4810   -8.3450 H   0  0  0  0  0  0  0  0  0  0  0  0
   41.5030  -11.0630   -8.8150 H   0  0  0  0  0  0  0  0  0  0  0  0
   42.3900  -12.3790   -7.1370 H   0  0  0  0  0  0  0  0  0  0  0  0
   41.6580  -12.0980   -4.9590 H   0  0  0  0  0  0  0  0  0  0  0  0
   40.0470  -10.5220   -4.4550 H   0  0  0  0  0  0  0  0  0  0  0  0
   34.6690   -8.3200   -5.9500 H   0  0  0  0  0  0  0  0  0  0  0  0
   35.3490   -6.6010   -7.8260 H   0  0  0  0  0  0  0  0  0  0  0  0
   34.6710   -5.2220   -4.4480 H   0  0  0  0  0  0  0  0  0  0  0  0
   35.1060   -4.2310   -5.3330 H   0  0  0  0  0  0  0  0  0  0  0  0
   36.6170   -8.5800   -8.0320 H   0  0  0  0  0  0  0  0  0  0  0  0
   35.3000   -9.3610   -7.9610 H   0  0  0  0  0  0  0  0  0  0  0  0
   37.2300  -10.5690   -6.9920 H   0  0  0  0  0  0  0  0  0  0  0  0
   35.9690  -10.5720   -6.1010 H   0  0  0  0  0  0  0  0  0  0  0  0
  1  2  1  0  0  0  0
  1 40  1  0  0  0  0
  1 41  1  0  0  0  0
  2  3  1  0  0  0  0
  2  9  1  0  0  0  0
  3  4  4  0  0  0  0
  3  8  4  0  0  0  0
  4  5  4  0  0  0  0
  4 42  1  0  0  0  0
  5  6  4  0  0  0  0
  5 43  1  0  0  0  0
  6  7  4  0  0  0  0
  6 44  1  0  0  0  0
  7  8  4  0  0  0  0
  7 45  1  0  0  0  0
  8 46  1  0  0  0  0
  9 10  1  0  0  0  0
  9 25  1  0  0  0  0
  9 39  1  0  0  0  0
 10 11  1  0  0  0  0
 10 32  1  0  0  0  0
 10 47  1  0  0  0  0
 11 12  1  0  0  0  0
 11 48  1  0  0  0  0
 11 49  1  0  0  0  0
 12 13  1  0  0  0  0
 12 25  1  0  0  0  0
 13 14  1  0  0  0  0
 13 50  1  0  0  0  0
 13 51  1  0  0  0  0
 14 15  1  0  0  0  0
 14 52  1  0  0  0  0
 14 53  1  0  0  0  0
 15 16  1  0  0  0  0
 15 54  1  0  0  0  0
 15 55  1  0  0  0  0
 16 17  1  0  0  0  0
 16 56  1  0  0  0  0
 16 57  1  0  0  0  0
 17 18  1  0  0  0  0
 17 58  1  0  0  0  0
 17 59  1  0  0  0  0
 18 19  1  0  0  0  0
 18 60  1  0  0  0  0
 18 61  1  0  0  0  0
 19 20  1  0  0  0  0
 19 62  1  0  0  0  0
 19 63  1  0  0  0  0
 20 21  1  0  0  0  0
 20 64  1  0  0  0  0
 20 65  1  0  0  0  0
 21 22  1  0  0  0  0
 21 66  1  0  0  0  0
 21 67  1  0  0  0  0
 22 23  4  0  0  0  0
 22 24  4  0  0  0  0
 25 26  1  0  0  0  0
 26 27  4  0  0  0  0
 26 31  4  0  0  0  0
 27 28  4  0  0  0  0
 27 68  1  0  0  0  0
 28 29  4  0  0  0  0
 28 69  1  0  0  0  0
 29 30  4  0  0  0  0
 29 70  1  0  0  0  0
 30 31  4  0  0  0  0
 30 71  1  0  0  0  0
 31 72  1  0  0  0  0
 32 33  1  0  0  0  0
 32 38  1  0  0  0  0
 32 73  1  0  0  0  0
 33 34  1  0  0  0  0
 33 74  1  0  0  0  0
 34 35  2  0  0  0  0
 34 36  1  0  0  0  0
 34 37  2  0  0  0  0
 36 75  1  0  0  0  0
 36 76  1  0  0  0  0
 38 39  1  0  0  0  0
 38 77  1  0  0  0  0
 38 78  1  0  0  0  0
 39 79  1  0  0  0  0
 39 80  1  0  0  0  0
M  END
$$$$
