complex
  PyMOL3.0          3D                             0

  4  4  0  0  0  0  0  0  0  0999 V2000
  -37.7080  -47.6550   -7.2820 S   0  0  0  0  0  0  0  0  0  0  0  0
  -35.9940  -44.6500   -6.8400 S   0  0  0  0  0  0  0  0  0  0  0  0
  -35.8530  -46.8290   -6.4450 Fe  0  0  0  0  0  0  0  0  0  0  0  0
  -37.7960  -45.5290   -7.7070 Fe  0  0  0  0  0  0  0  0  0  0  0  0
  1  3  1  0  0  0  0
  1  4  1  0  0  0  0
  2  3  1  0  0  0  0
  2  4  1  0  0  0  0
M  END
$$$$
