complex
  PyMOL3.0          3D                             0

 32 34  0  0  0  0  0  0  0  0999 V2000
  -11.1500   58.0910  -25.3630 P   0  0  0  0  0  0  0  0  0  0  0  0
  -12.8320   58.4010  -27.6920 P   0  0  0  0  0  0  0  0  0  0  0  0
  -15.2460   60.0670  -27.8780 P   0  0  0  0  0  0  0  0  0  0  0  0
  -12.0570   56.1910  -23.7270 C   0  0  0  0  0  0  0  0  0  0  0  0
  -10.9710   56.7970  -24.4510 O   0  0  0  0  0  0  0  0  0  0  0  0
  -11.4890   55.2740  -22.6720 C   0  0  0  0  0  0  0  0  0  0  0  0
  -10.7570   54.2040  -23.3190 O   0  0  0  0  0  0  0  0  0  0  0  0
  -10.5110   55.9070  -21.6710 C   0  0  0  0  0  0  0  0  0  0  0  0
  -10.7880   55.4430  -20.3600 O   0  0  0  0  0  0  0  0  0  0  0  0
   -9.1590   55.3440  -22.1120 C   0  0  0  0  0  0  0  0  0  0  0  0
   -8.1940   55.2980  -21.0880 O   0  0  0  0  0  0  0  0  0  0  0  0
   -9.5680   53.9670  -22.6120 C   0  0  0  0  0  0  0  0  0  0  0  0
   -6.6010   49.9510  -23.7210 N   0  0  0  0  0  0  0  0  0  0  0  0
  -11.6400   59.2320  -24.5540 O   0  5  0  0  0  0  0  0  0  0  0  0
  -11.9270   59.5290  -27.9380 O   0  5  0  0  0  0  0  0  0  0  0  0
  -15.5500   59.5990  -29.2510 O   0  0  0  0  0  0  0  0  0  0  0  0
   -7.4690   50.1220  -22.6720 C   0  0  0  0  0  0  0  0  0  0  0  0
   -7.5570   49.1060  -21.8080 N   0  0  0  0  0  0  0  0  0  0  0  0
   -9.8930   58.2930  -26.1210 O   0  0  0  0  0  0  0  0  0  0  0  0
  -13.0490   57.4110  -28.7550 O   0  0  0  0  0  0  0  0  0  0  0  0
  -16.4490   60.1040  -27.0150 O   0  5  0  0  0  0  0  0  0  0  0  0
   -8.2040   51.2180  -22.4830 N   0  0  0  0  0  0  0  0  0  0  0  0
  -12.2870   57.6540  -26.3940 O   0  0  0  0  0  0  0  0  0  0  0  0
  -14.2410   58.9920  -27.2390 O   0  0  0  0  0  0  0  0  0  0  0  0
  -14.5210   61.3490  -27.8670 O   0  0  0  0  0  0  0  0  0  0  0  0
   -7.9960   52.1500  -23.4400 C   0  0  0  0  0  0  0  0  0  0  0  0
   -7.1520   52.0650  -24.5240 C   0  0  0  0  0  0  0  0  0  0  0  0
   -6.3780   50.8950  -24.7220 C   0  0  0  0  0  0  0  0  0  0  0  0
   -5.5740   50.6570  -25.6270 O   0  0  0  0  0  0  0  0  0  0  0  0
   -7.2150   53.2240  -25.2790 N   0  0  0  0  0  0  0  0  0  0  0  0
   -8.0760   53.9740  -24.6440 C   0  0  0  0  0  0  0  0  0  0  0  0
   -8.6010   53.3790  -23.5280 N   0  0  0  0  0  0  0  0  0  0  0  0
  1  5  1  0  0  0  0
  1 14  1  0  0  0  0
  1 19  2  0  0  0  0
  1 23  1  0  0  0  0
  2 15  1  0  0  0  0
  2 20  2  0  0  0  0
  2 23  1  0  0  0  0
  2 24  1  0  0  0  0
  3 16  1  0  0  0  0
  3 21  1  0  0  0  0
  3 24  1  0  0  0  0
  3 25  2  0  0  0  0
  4  5  1  0  0  0  0
  4  6  1  0  0  0  0
  6  7  1  0  0  0  0
  6  8  1  0  0  0  0
  7 12  1  0  0  0  0
  8  9  1  0  0  0  0
  8 10  1  0  0  0  0
 10 11  1  0  0  0  0
 10 12  1  0  0  0  0
 12 32  1  0  0  0  0
 13 17  4  0  0  0  0
 13 28  4  0  0  0  0
 17 18  1  0  0  0  0
 17 22  4  0  0  0  0
 22 26  4  0  0  0  0
 26 27  4  0  0  0  0
 26 32  4  0  0  0  0
 27 28  4  0  0  0  0
 27 30  4  0  0  0  0
 28 29  2  0  0  0  0
 30 31  4  0  0  0  0
 31 32  4  0  0  0  0
M  END
$$$$
