complex
  PyMOL3.0          3D                             0

 14 14  0  0  0  0  0  0  0  0999 V2000
   61.0340   72.6110   59.8380 C   0  0  0  0  0  0  0  0  0  0  0  0
   62.5050   73.0450   59.8630 C   0  0  0  0  0  0  0  0  0  0  0  0
   62.7420   74.1530   58.9510 N   0  0  0  0  0  0  0  0  0  0  0  0
   63.4140   71.8680   59.5200 C   0  0  0  0  0  0  0  0  0  0  0  0
   64.7740   72.2640   59.6670 O   0  0  0  0  0  0  0  0  0  0  0  0
   63.1180   70.6830   60.4270 C   0  0  0  0  0  0  0  0  0  0  0  0
   63.8870   69.5560   60.0230 O   0  0  0  0  0  0  0  0  0  0  0  0
   61.6350   70.3320   60.3600 C   0  0  0  0  0  0  0  0  0  0  0  0
   60.8480   71.4810   60.7060 O   0  0  0  0  0  0  0  0  0  0  0  0
   61.2440   69.2320   61.3200 C   0  0  0  0  0  0  0  0  0  0  0  0
   59.8420   69.0010   61.3030 O   0  0  0  0  0  0  0  0  0  0  0  0
   62.7050   75.4330   59.3340 C   0  0  0  0  0  0  0  0  0  0  0  0
   62.4560   75.7570   60.4890 O   0  0  0  0  0  0  0  0  0  0  0  0
   62.9770   76.4480   58.2640 C   0  0  0  0  0  0  0  0  0  0  0  0
  1  2  1  0  0  0  0
  1  9  1  0  0  0  0
  2  3  1  0  0  0  0
  2  4  1  0  0  0  0
  3 12  1  0  0  0  0
  4  5  1  0  0  0  0
  4  6  1  0  0  0  0
  6  7  1  0  0  0  0
  6  8  1  0  0  0  0
  8  9  1  0  0  0  0
  8 10  1  0  0  0  0
 10 11  1  0  0  0  0
 12 13  2  0  0  0  0
 12 14  1  0  0  0  0
M  END
$$$$
