complex
  PyMOL3.0          3D                             0

 44 48  0  0  0  0  0  0  0  0999 V2000
  250.1840  100.4550  227.7240 P   0  0  0  0  0  0  0  0  0  0  0  0
  249.0770  101.1810  225.0740 P   0  0  0  0  0  0  0  0  0  0  0  0
  250.7620   94.4660  228.4010 C   0  0  0  0  0  0  0  0  0  0  0  0
  251.3590  100.8150  220.2920 C   0  0  0  0  0  0  0  0  0  0  0  0
  251.8270   89.7140  226.6990 N   0  0  0  0  0  0  0  0  0  0  0  0
  250.8500  102.0130  219.5650 N   0  0  0  0  0  0  0  0  0  0  0  0
  251.6060  100.5190  228.1730 O   0  5  0  0  0  0  0  0  0  0  0  0
  248.9630  102.6590  225.2510 O   0  5  0  0  0  0  0  0  0  0  0  0
  250.6690   90.3400  226.9420 C   0  0  0  0  0  0  0  0  0  0  0  0
  251.0930   95.3080  229.6240 C   0  0  0  0  0  0  0  0  0  0  0  0
  252.2880  101.1850  221.4390 C   0  0  0  0  0  0  0  0  0  0  0  0
  250.8250  102.0260  218.1930 C   0  0  0  0  0  0  0  0  0  0  0  0
  249.2110  101.4120  228.3270 O   0  0  0  0  0  0  0  0  0  0  0  0
  251.0340   94.6010  230.8440 O   0  0  0  0  0  0  0  0  0  0  0  0
  253.5760  101.5840  220.9990 O   0  0  0  0  0  0  0  0  0  0  0  0
  247.8280  100.3670  225.1470 O   0  0  0  0  0  0  0  0  0  0  0  0
  250.0240   96.3950  229.4810 C   0  0  0  0  0  0  0  0  0  0  0  0
  252.2790   99.8930  222.2620 C   0  0  0  0  0  0  0  0  0  0  0  0
  250.3700  103.1450  217.5100 C   0  0  0  0  0  0  0  0  0  0  0  0
  250.4580   91.5770  227.3800 N   0  0  0  0  0  0  0  0  0  0  0  0
  250.1430  100.6050  226.1280 O   0  0  0  0  0  0  0  0  0  0  0  0
  248.7940   95.9200  230.0120 O   0  0  0  0  0  0  0  0  0  0  0  0
  253.1810   98.9410  221.7160 O   0  0  0  0  0  0  0  0  0  0  0  0
  251.6180   92.2220  227.5830 C   0  0  0  0  0  0  0  0  0  0  0  0
  249.8980   96.5550  227.9560 C   0  0  0  0  0  0  0  0  0  0  0  0
  250.8350   99.4070  222.0650 C   0  0  0  0  0  0  0  0  0  0  0  0
  249.9170  104.2420  218.2340 C   0  0  0  0  0  0  0  0  0  0  0  0
  250.6290   95.4340  227.3900 O   0  0  0  0  0  0  0  0  0  0  0  0
  250.2890  100.2400  221.0190 O   0  0  0  0  0  0  0  0  0  0  0  0
  252.8850   91.7120  227.3780 C   0  0  0  0  0  0  0  0  0  0  0  0
  250.4130   97.8490  227.3730 C   0  0  0  0  0  0  0  0  0  0  0  0
  249.9380   99.4850  223.2750 C   0  0  0  0  0  0  0  0  0  0  0  0
  249.9270  104.2040  219.6100 C   0  0  0  0  0  0  0  0  0  0  0  0
  249.6510   98.9550  227.9260 O   0  0  0  0  0  0  0  0  0  0  0  0
  249.8270  100.8670  223.6940 O   0  0  0  0  0  0  0  0  0  0  0  0
  252.9810   90.3880  226.9100 C   0  0  0  0  0  0  0  0  0  0  0  0
  250.4020  103.0850  220.2550 C   0  0  0  0  0  0  0  0  0  0  0  0
  254.1340   89.7700  226.6720 N   0  0  0  0  0  0  0  0  0  0  0  0
  250.3720  103.1220  216.0020 C   0  0  0  0  0  0  0  0  0  0  0  0
  253.8450   92.6620  227.6930 N   0  0  0  0  0  0  0  0  0  0  0  0
  250.0200  104.2300  215.3700 N   0  0  0  0  0  0  0  0  0  0  0  0
  250.6970  102.0930  215.4150 O   0  0  0  0  0  0  0  0  0  0  0  0
  253.1550   93.7050  228.0800 C   0  0  0  0  0  0  0  0  0  0  0  0
  251.7980   93.5100  228.0290 N   0  0  0  0  0  0  0  0  0  0  0  0
  1  7  1  0  0  0  0
  1 13  2  0  0  0  0
  1 21  1  0  0  0  0
  1 34  1  0  0  0  0
  2  8  1  0  0  0  0
  2 16  2  0  0  0  0
  2 21  1  0  0  0  0
  2 35  1  0  0  0  0
  3 10  1  0  0  0  0
  3 28  1  0  0  0  0
  3 44  1  0  0  0  0
  4  6  1  0  0  0  0
  4 11  1  0  0  0  0
  4 29  1  0  0  0  0
  5  9  4  0  0  0  0
  5 36  4  0  0  0  0
  6 12  4  0  0  0  0
  6 37  4  0  0  0  0
  9 20  4  0  0  0  0
 10 14  1  0  0  0  0
 10 17  1  0  0  0  0
 11 15  1  0  0  0  0
 11 18  1  0  0  0  0
 12 19  4  0  0  0  0
 17 22  1  0  0  0  0
 17 25  1  0  0  0  0
 18 23  1  0  0  0  0
 18 26  1  0  0  0  0
 19 27  4  0  0  0  0
 19 39  1  0  0  0  0
 20 24  4  0  0  0  0
 24 30  4  0  0  0  0
 24 44  4  0  0  0  0
 25 28  1  0  0  0  0
 25 31  1  0  0  0  0
 26 29  1  0  0  0  0
 26 32  1  0  0  0  0
 27 33  4  0  0  0  0
 30 36  4  0  0  0  0
 30 40  4  0  0  0  0
 31 34  1  0  0  0  0
 32 35  1  0  0  0  0
 33 37  4  0  0  0  0
 36 38  1  0  0  0  0
 39 41  1  0  0  0  0
 39 42  2  0  0  0  0
 40 43  4  0  0  0  0
 43 44  4  0  0  0  0
M  END
$$$$
