complex
  PyMOL3.0          3D                             0

 44 48  0  0  0  0  0  0  0  0999 V2000
  241.0180   99.5290  245.1160 P   0  0  0  0  0  0  0  0  0  0  0  0
  238.2070   98.7970  245.6990 P   0  0  0  0  0  0  0  0  0  0  0  0
  241.8920  105.5180  245.2200 C   0  0  0  0  0  0  0  0  0  0  0  0
  235.5510   99.1500  250.2860 C   0  0  0  0  0  0  0  0  0  0  0  0
  241.0820  110.2660  247.0690 N   0  0  0  0  0  0  0  0  0  0  0  0
  234.6660   97.9510  250.2750 N   0  0  0  0  0  0  0  0  0  0  0  0
  242.1910   99.4650  246.0350 O   0  5  0  0  0  0  0  0  0  0  0  0
  238.2910   97.3190  245.5030 O   0  5  0  0  0  0  0  0  0  0  0  0
  240.6290  109.6420  245.9750 C   0  0  0  0  0  0  0  0  0  0  0  0
  243.0890  104.6800  244.8010 C   0  0  0  0  0  0  0  0  0  0  0  0
  237.0230   98.7830  250.4030 C   0  0  0  0  0  0  0  0  0  0  0  0
  233.5200   97.9340  251.0300 C   0  0  0  0  0  0  0  0  0  0  0  0
  240.9660   98.5730  243.9700 O   0  0  0  0  0  0  0  0  0  0  0  0
  244.0610  105.3890  244.0640 O   0  0  0  0  0  0  0  0  0  0  0  0
  237.3890   98.3820  251.7140 O   0  0  0  0  0  0  0  0  0  0  0  0
  237.5600   99.6110  244.6290 O   0  0  0  0  0  0  0  0  0  0  0  0
  242.3690  103.5920  243.9970 C   0  0  0  0  0  0  0  0  0  0  0  0
  237.6950  100.0760  249.9320 C   0  0  0  0  0  0  0  0  0  0  0  0
  232.7010   96.8130  251.0380 C   0  0  0  0  0  0  0  0  0  0  0  0
  240.8720  108.4050  245.5520 N   0  0  0  0  0  0  0  0  0  0  0  0
  239.6770   99.3740  245.9840 O   0  0  0  0  0  0  0  0  0  0  0  0
  242.1110  104.0700  242.6840 O   0  0  0  0  0  0  0  0  0  0  0  0
  237.7530  101.0260  250.9870 O   0  0  0  0  0  0  0  0  0  0  0  0
  241.6970  107.7610  246.3930 C   0  0  0  0  0  0  0  0  0  0  0  0
  241.0410  103.4290  244.7560 C   0  0  0  0  0  0  0  0  0  0  0  0
  236.7150  100.5620  248.8540 C   0  0  0  0  0  0  0  0  0  0  0  0
  233.0450   95.7190  250.2530 C   0  0  0  0  0  0  0  0  0  0  0  0
  240.9840  104.5480  245.6800 O   0  0  0  0  0  0  0  0  0  0  0  0
  235.5450   99.7270  248.9920 O   0  0  0  0  0  0  0  0  0  0  0  0
  242.2430  108.2690  247.5550 C   0  0  0  0  0  0  0  0  0  0  0  0
  240.8530  102.1330  245.5080 C   0  0  0  0  0  0  0  0  0  0  0  0
  237.2060  100.4870  247.4300 C   0  0  0  0  0  0  0  0  0  0  0  0
  234.1850   95.7600  249.4840 C   0  0  0  0  0  0  0  0  0  0  0  0
  240.8800  101.0290  244.5640 O   0  0  0  0  0  0  0  0  0  0  0  0
  237.4910   99.1070  247.0990 O   0  0  0  0  0  0  0  0  0  0  0  0
  241.9090  109.5920  247.9010 C   0  0  0  0  0  0  0  0  0  0  0  0
  234.9830   96.8800  249.5130 C   0  0  0  0  0  0  0  0  0  0  0  0
  242.3640  110.2090  248.9880 N   0  0  0  0  0  0  0  0  0  0  0  0
  231.4590   96.8330  251.8930 C   0  0  0  0  0  0  0  0  0  0  0  0
  243.0470  107.3190  248.1670 N   0  0  0  0  0  0  0  0  0  0  0  0
  230.7400   95.7230  251.9580 N   0  0  0  0  0  0  0  0  0  0  0  0
  231.1560   97.8610  252.4940 O   0  0  0  0  0  0  0  0  0  0  0  0
  242.9780  106.2780  247.3770 C   0  0  0  0  0  0  0  0  0  0  0  0
  242.1690  106.4730  246.2870 N   0  0  0  0  0  0  0  0  0  0  0  0
  1  7  1  0  0  0  0
  1 13  2  0  0  0  0
  1 21  1  0  0  0  0
  1 34  1  0  0  0  0
  2  8  1  0  0  0  0
  2 16  2  0  0  0  0
  2 21  1  0  0  0  0
  2 35  1  0  0  0  0
  3 10  1  0  0  0  0
  3 28  1  0  0  0  0
  3 44  1  0  0  0  0
  4  6  1  0  0  0  0
  4 11  1  0  0  0  0
  4 29  1  0  0  0  0
  5  9  4  0  0  0  0
  5 36  4  0  0  0  0
  6 12  4  0  0  0  0
  6 37  4  0  0  0  0
  9 20  4  0  0  0  0
 10 14  1  0  0  0  0
 10 17  1  0  0  0  0
 11 15  1  0  0  0  0
 11 18  1  0  0  0  0
 12 19  4  0  0  0  0
 17 22  1  0  0  0  0
 17 25  1  0  0  0  0
 18 23  1  0  0  0  0
 18 26  1  0  0  0  0
 19 27  4  0  0  0  0
 19 39  1  0  0  0  0
 20 24  4  0  0  0  0
 24 30  4  0  0  0  0
 24 44  4  0  0  0  0
 25 28  1  0  0  0  0
 25 31  1  0  0  0  0
 26 29  1  0  0  0  0
 26 32  1  0  0  0  0
 27 33  4  0  0  0  0
 30 36  4  0  0  0  0
 30 40  4  0  0  0  0
 31 34  1  0  0  0  0
 32 35  1  0  0  0  0
 33 37  4  0  0  0  0
 36 38  1  0  0  0  0
 39 41  1  0  0  0  0
 39 42  2  0  0  0  0
 40 43  4  0  0  0  0
 43 44  4  0  0  0  0
M  END
$$$$
