complex
  PyMOL3.0          3D                             0

 12 12  0  0  0  0  0  0  0  0999 V2000
   99.0530  -36.2950  -24.5940 C   0  0  0  0  0  0  0  0  0  0  0  0
   99.9760  -36.3310  -25.6890 O   0  0  0  0  0  0  0  0  0  0  0  0
   98.6340  -37.7160  -24.2370 C   0  0  0  0  0  0  0  0  0  0  0  0
   99.7960  -38.4930  -23.9260 O   0  0  0  0  0  0  0  0  0  0  0  0
   97.8800  -38.3690  -25.3890 C   0  0  0  0  0  0  0  0  0  0  0  0
   97.3110  -39.6060  -24.9470 O   0  0  0  0  0  0  0  0  0  0  0  0
   96.7730  -37.4550  -25.9020 C   0  0  0  0  0  0  0  0  0  0  0  0
   96.2360  -37.9920  -27.1170 O   0  0  0  0  0  0  0  0  0  0  0  0
   97.3000  -36.0480  -26.1580 C   0  0  0  0  0  0  0  0  0  0  0  0
   97.9020  -35.5420  -24.9690 O   0  0  0  0  0  0  0  0  0  0  0  0
   96.1770  -35.1160  -26.5960 C   0  0  0  0  0  0  0  0  0  0  0  0
   96.7270  -33.8540  -26.9870 O   0  0  0  0  0  0  0  0  0  0  0  0
  1  2  1  0  0  0  0
  1  3  1  0  0  0  0
  1 10  1  0  0  0  0
  3  4  1  0  0  0  0
  3  5  1  0  0  0  0
  5  6  1  0  0  0  0
  5  7  1  0  0  0  0
  7  8  1  0  0  0  0
  7  9  1  0  0  0  0
  9 10  1  0  0  0  0
  9 11  1  0  0  0  0
 11 12  1  0  0  0  0
M  END
$$$$
