complex
  PyMOL3.0          3D                             0

 16 17  0  0  0  0  0  0  0  0999 V2000
  -45.3680  -52.2760  -51.7680 Se  0  0  0  0  0  0  0  0  0  0  0  0
  -47.2510  -52.4830  -52.2310 C   0  0  0  0  0  0  0  0  0  0  0  0
  -48.1110  -51.4000  -52.1400 C   0  0  0  0  0  0  0  0  0  0  0  0
  -49.4490  -51.5480  -52.4680 C   0  0  0  0  0  0  0  0  0  0  0  0
  -49.9270  -52.7780  -52.8870 C   0  0  0  0  0  0  0  0  0  0  0  0
  -49.0680  -53.8610  -52.9780 C   0  0  0  0  0  0  0  0  0  0  0  0
  -47.7300  -53.7130  -52.6480 C   0  0  0  0  0  0  0  0  0  0  0  0
  -46.7860  -54.9110  -52.7520 C   0  0  0  0  0  0  0  0  0  0  0  0
  -46.8400  -55.7600  -51.9260 O   0  0  0  0  0  0  0  0  0  0  0  0
  -45.8540  -54.9690  -53.8720 N   0  0  0  0  0  0  0  0  0  0  0  0
  -44.8940  -56.0390  -54.1210 C   0  0  0  0  0  0  0  0  0  0  0  0
  -44.3890  -56.1860  -55.3730 C   0  0  0  0  0  0  0  0  0  0  0  0
  -43.4900  -57.1410  -55.7200 C   0  0  0  0  0  0  0  0  0  0  0  0
  -43.0430  -58.0330  -54.7600 C   0  0  0  0  0  0  0  0  0  0  0  0
  -43.5350  -57.9240  -53.4400 C   0  0  0  0  0  0  0  0  0  0  0  0
  -44.4690  -56.9100  -53.1290 C   0  0  0  0  0  0  0  0  0  0  0  0
  1  2  1  0  0  0  0
  2  3  4  0  0  0  0
  2  7  4  0  0  0  0
  3  4  4  0  0  0  0
  4  5  4  0  0  0  0
  5  6  4  0  0  0  0
  6  7  4  0  0  0  0
  7  8  1  0  0  0  0
  8  9  2  0  0  0  0
  8 10  1  0  0  0  0
 10 11  1  0  0  0  0
 11 12  4  0  0  0  0
 11 16  4  0  0  0  0
 12 13  4  0  0  0  0
 13 14  4  0  0  0  0
 14 15  4  0  0  0  0
 15 16  4  0  0  0  0
M  END
$$$$
