complex
  PyMOL3.0          3D                             0

  5  4  0  0  0  0  0  0  0  0999 V2000
  -34.0140   67.7140   15.7350 O   0  0  0  0  0  0  0  0  0  0  0  0
  -33.1620   69.8890   16.2180 O   0  0  0  0  0  0  0  0  0  0  0  0
  -33.8240   68.4460   17.9970 O   0  5  0  0  0  0  0  0  0  0  0  0
  -31.8620   67.9560   16.7330 O   0  0  0  0  0  0  0  0  0  0  0  0
  -33.2150   68.5010   16.6710 S   0  0  0  0  0  0  0  0  0  0  0  0
  1  5  1  0  0  0  0
  2  5  1  0  0  0  0
  3  5  1  0  0  0  0
  4  5  2  0  0  0  0
M  END
$$$$
