complex
  PyMOL3.0          3D                             0

 46 49  0  0  0  0  0  0  0  0999 V2000
  429.9520  325.5920  312.5200 Cl  0  0  0  0  0  0  0  0  0  0  0  0
  436.2230  324.1090  306.2230 N   0  0  0  0  0  0  0  0  0  0  0  0
  436.0320  323.0570  308.4360 O   0  0  0  0  0  0  0  0  0  0  0  0
  434.9700  324.7170  304.2040 C   0  0  0  0  0  0  0  0  0  0  0  0
  433.1050  324.1380  307.3660 N   0  0  0  0  0  0  0  0  0  0  0  0
  431.5770  322.3950  308.1250 O   0  0  0  0  0  0  0  0  0  0  0  0
  436.1350  323.9100  304.7830 C   0  0  0  0  0  0  0  0  0  0  0  0
  430.0960  323.4860  302.3300 O   0  0  0  0  0  0  0  0  0  0  0  0
  435.5370  323.9770  307.5000 C   0  0  0  0  0  0  0  0  0  0  0  0
  431.3750  321.7690  301.6050 O   0  0  0  0  0  0  0  0  0  0  0  0
  434.3000  324.8120  307.8510 C   0  0  0  0  0  0  0  0  0  0  0  0
  432.7230  324.3830  303.0910 O   0  0  0  0  0  0  0  0  0  0  0  0
  431.8540  323.4140  307.2140 C   0  0  0  0  0  0  0  0  0  0  0  0
  433.6840  322.7380  304.3030 O   0  0  0  0  0  0  0  0  0  0  0  0
  430.8080  323.7450  306.1520 C   0  0  0  0  0  0  0  0  0  0  0  0
  427.1000  322.4860  300.1050 O   0  0  0  0  0  0  0  0  0  0  0  0
  430.2220  322.7980  305.4460 C   0  0  0  0  0  0  0  0  0  0  0  0
  429.6000  328.1100  310.9210 O   0  0  0  0  0  0  0  0  0  0  0  0
  429.1580  323.2070  304.4250 C   0  0  0  0  0  0  0  0  0  0  0  0
  429.2560  322.6090  303.0260 C   0  0  0  0  0  0  0  0  0  0  0  0
  431.2980  322.9180  301.8940 C   0  0  0  0  0  0  0  0  0  0  0  0
  432.5060  323.8450  301.8080 C   0  0  0  0  0  0  0  0  0  0  0  0
  433.7550  323.8440  303.8740 C   0  0  0  0  0  0  0  0  0  0  0  0
  433.7550  323.2290  301.1760 C   0  0  0  0  0  0  0  0  0  0  0  0
  434.1210  323.9470  299.8750 C   0  0  0  0  0  0  0  0  0  0  0  0
  433.4660  325.3250  299.7630 C   0  0  0  0  0  0  0  0  0  0  0  0
  433.8740  323.0790  298.6430 C   0  0  0  0  0  0  0  0  0  0  0  0
  427.8940  322.6580  302.3180 C   0  0  0  0  0  0  0  0  0  0  0  0
  426.7250  322.2750  303.2170 C   0  0  0  0  0  0  0  0  0  0  0  0
  427.8600  321.8630  301.0180 C   0  0  0  0  0  0  0  0  0  0  0  0
  428.4290  322.7540  299.8360 C   0  0  0  0  0  0  0  0  0  0  0  0
  429.0370  322.9310  298.4490 C   0  0  0  0  0  0  0  0  0  0  0  0
  428.4830  323.8270  297.5510 C   0  0  0  0  0  0  0  0  0  0  0  0
  429.0530  323.9680  296.2860 C   0  0  0  0  0  0  0  0  0  0  0  0
  430.1710  323.2050  295.9400 C   0  0  0  0  0  0  0  0  0  0  0  0
  430.7100  322.3100  296.8530 C   0  0  0  0  0  0  0  0  0  0  0  0
  430.1380  322.1830  298.0980 C   0  0  0  0  0  0  0  0  0  0  0  0
  434.1880  325.0350  309.3650 C   0  0  0  0  0  0  0  0  0  0  0  0
  432.9580  325.8480  309.7870 C   0  0  0  0  0  0  0  0  0  0  0  0
  432.1210  325.4120  310.8220 C   0  0  0  0  0  0  0  0  0  0  0  0
  431.0080  326.1630  311.1980 C   0  0  0  0  0  0  0  0  0  0  0  0
  430.7210  327.3510  310.5510 C   0  0  0  0  0  0  0  0  0  0  0  0
  431.5320  327.7900  309.5310 C   0  0  0  0  0  0  0  0  0  0  0  0
  432.6380  327.0480  309.1550 C   0  0  0  0  0  0  0  0  0  0  0  0
  429.2980  328.0480  312.2870 C   0  0  0  0  0  0  0  0  0  0  0  0
  435.3830  325.6480  303.0620 C   0  0  0  0  0  0  0  0  0  0  0  0
  1 41  1  0  0  0  0
  2  7  1  0  0  0  0
  2  9  1  0  0  0  0
  3  9  1  0  0  0  0
  4  7  1  0  0  0  0
  4 23  1  0  0  0  0
  4 46  1  0  0  0  0
  5 11  1  0  0  0  0
  5 13  1  0  0  0  0
  6 13  1  0  0  0  0
  8 20  1  0  0  0  0
  8 21  1  0  0  0  0
  9 11  1  0  0  0  0
 10 21  2  0  0  0  0
 11 38  1  0  0  0  0
 12 22  1  0  0  0  0
 12 23  1  0  0  0  0
 13 15  1  0  0  0  0
 14 23  2  0  0  0  0
 15 17  1  0  0  0  0
 16 30  1  0  0  0  0
 16 31  1  0  0  0  0
 17 19  1  0  0  0  0
 18 42  1  0  0  0  0
 18 45  1  0  0  0  0
 19 20  1  0  0  0  0
 20 28  1  0  0  0  0
 21 22  1  0  0  0  0
 22 24  1  0  0  0  0
 24 25  1  0  0  0  0
 25 26  1  0  0  0  0
 25 27  1  0  0  0  0
 28 29  1  0  0  0  0
 28 30  1  0  0  0  0
 30 31  1  0  0  0  0
 31 32  1  0  0  0  0
 32 33  4  0  0  0  0
 32 37  4  0  0  0  0
 33 34  4  0  0  0  0
 34 35  4  0  0  0  0
 35 36  4  0  0  0  0
 36 37  4  0  0  0  0
 38 39  1  0  0  0  0
 39 40  4  0  0  0  0
 39 44  4  0  0  0  0
 40 41  4  0  0  0  0
 41 42  4  0  0  0  0
 42 43  4  0  0  0  0
 43 44  4  0  0  0  0
M  END
$$$$
