complex
  PyMOL3.0          3D                             0

 30 32  0  0  0  0  0  0  0  0999 V2000
  142.3180  137.8750  112.8810 P   0  0  0  0  0  0  0  0  0  0  0  0
  144.3040  135.8320  113.6400 P   0  0  0  0  0  0  0  0  0  0  0  0
  146.3300  137.4940  115.0660 P   0  0  0  0  0  0  0  0  0  0  0  0
  139.9990  136.9420  112.0350 C   0  0  0  0  0  0  0  0  0  0  0  0
  141.2700  137.5580  111.7420 O   0  0  0  0  0  0  0  0  0  0  0  0
  139.6490  135.9300  110.9770 C   0  0  0  0  0  0  0  0  0  0  0  0
  139.3010  136.6100  109.7550 O   0  0  0  0  0  0  0  0  0  0  0  0
  140.7630  134.9520  110.6100 C   0  0  0  0  0  0  0  0  0  0  0  0
  140.6220  133.7350  111.3440 O   0  0  0  0  0  0  0  0  0  0  0  0
  140.5220  134.7210  109.1260 C   0  0  0  0  0  0  0  0  0  0  0  0
  140.0520  136.0900  108.6760 C   0  0  0  0  0  0  0  0  0  0  0  0
  141.3700  140.6490  106.6780 N   0  0  0  0  0  0  0  0  0  0  0  0
  141.6860  137.7470  114.2060 O   0  5  0  0  0  0  0  0  0  0  0  0
  143.4470  134.8420  114.3030 O   0  5  0  0  0  0  0  0  0  0  0  0
  146.3990  138.8990  114.5960 O   0  0  0  0  0  0  0  0  0  0  0  0
  140.1950  140.0240  106.7600 C   0  0  0  0  0  0  0  0  0  0  0  0
  142.9310  139.2290  112.6140 O   0  0  0  0  0  0  0  0  0  0  0  0
  145.4460  135.2640  112.8040 O   0  0  0  0  0  0  0  0  0  0  0  0
  146.4170  137.3490  116.5670 O   0  5  0  0  0  0  0  0  0  0  0  0
  139.9170  138.8330  107.2840 N   0  0  0  0  0  0  0  0  0  0  0  0
  143.4640  136.8070  112.7010 O   0  0  0  0  0  0  0  0  0  0  0  0
  144.9330  136.8480  114.6870 O   0  0  0  0  0  0  0  0  0  0  0  0
  147.3620  136.5880  114.4080 O   0  0  0  0  0  0  0  0  0  0  0  0
  141.0130  138.2620  107.7830 C   0  0  0  0  0  0  0  0  0  0  0  0
  142.2910  138.7850  107.7740 C   0  0  0  0  0  0  0  0  0  0  0  0
  142.4590  140.0440  107.1760 C   0  0  0  0  0  0  0  0  0  0  0  0
  143.6280  140.6780  107.0910 N   0  0  0  0  0  0  0  0  0  0  0  0
  143.1810  137.9060  108.3550 N   0  0  0  0  0  0  0  0  0  0  0  0
  142.4310  136.8950  108.7090 C   0  0  0  0  0  0  0  0  0  0  0  0
  141.1150  137.0350  108.3810 N   0  0  0  0  0  0  0  0  0  0  0  0
  1  5  1  0  0  0  0
  1 13  1  0  0  0  0
  1 17  2  0  0  0  0
  1 21  1  0  0  0  0
  2 14  1  0  0  0  0
  2 18  2  0  0  0  0
  2 21  1  0  0  0  0
  2 22  1  0  0  0  0
  3 15  1  0  0  0  0
  3 19  1  0  0  0  0
  3 22  1  0  0  0  0
  3 23  2  0  0  0  0
  4  5  1  0  0  0  0
  4  6  1  0  0  0  0
  6  7  1  0  0  0  0
  6  8  1  0  0  0  0
  7 11  1  0  0  0  0
  8  9  1  0  0  0  0
  8 10  1  0  0  0  0
 10 11  1  0  0  0  0
 11 30  1  0  0  0  0
 12 16  4  0  0  0  0
 12 26  4  0  0  0  0
 16 20  4  0  0  0  0
 20 24  4  0  0  0  0
 24 25  4  0  0  0  0
 24 30  4  0  0  0  0
 25 26  4  0  0  0  0
 25 28  4  0  0  0  0
 26 27  1  0  0  0  0
 28 29  4  0  0  0  0
 29 30  4  0  0  0  0
M  END
$$$$
