complex
  PyMOL3.0          3D                             0

 11 11  0  0  0  0  0  0  0  0999 V2000
   69.9340  -66.8570 -130.4310 C   0  0  0  0  0  0  0  0  0  0  0  0
   68.7430  -66.2810 -129.6530 C   0  0  0  0  0  0  0  0  0  0  0  0
   67.5220  -66.4510 -130.4020 O   0  0  0  0  0  0  0  0  0  0  0  0
   68.9910  -64.8080 -129.3270 C   0  0  0  0  0  0  0  0  0  0  0  0
   68.0300  -64.2730 -128.4320 O   0  0  0  0  0  0  0  0  0  0  0  0
   70.3420  -64.6050 -128.6810 C   0  0  0  0  0  0  0  0  0  0  0  0
   70.4680  -63.2090 -128.3820 O   0  0  0  0  0  0  0  0  0  0  0  0
   71.4310  -65.0640 -129.6470 C   0  0  0  0  0  0  0  0  0  0  0  0
   71.2170  -66.4700 -129.9000 O   0  0  0  0  0  0  0  0  0  0  0  0
   72.8410  -64.7530 -129.0820 C   0  0  0  0  0  0  0  0  0  0  0  0
   73.9090  -64.7860 -130.0400 O   0  0  0  0  0  0  0  0  0  0  0  0
  1  2  1  0  0  0  0
  1  9  1  0  0  0  0
  2  3  1  0  0  0  0
  2  4  1  0  0  0  0
  4  5  1  0  0  0  0
  4  6  1  0  0  0  0
  6  7  1  0  0  0  0
  6  8  1  0  0  0  0
  8  9  1  0  0  0  0
  8 10  1  0  0  0  0
 10 11  1  0  0  0  0
M  END
$$$$
