complex
  PyMOL3.0          3D                             0

  5  4  0  0  0  0  0  0  0  0999 V2000
  -23.7600  -39.6300   34.7580 Al  0  0  0  0  0  0  0  0  0  0  0  0
  -25.2090  -39.4180   35.7850 F   0  0  0  0  0  0  0  0  0  0  0  0
  -22.4110  -39.7710   33.5580 F   0  0  0  0  0  0  0  0  0  0  0  0
  -24.7240  -40.6930   33.7380 F   0  0  0  0  0  0  0  0  0  0  0  0
  -22.8520  -38.4760   35.7410 F   0  0  0  0  0  0  0  0  0  0  0  0
  1  2  1  0  0  0  0
  1  3  1  0  0  0  0
  1  4  1  0  0  0  0
  1  5  1  0  0  0  0
M  END
$$$$
