complex
  PyMOL3.0          3D                             0

 10  9  0  0  0  0  0  0  0  0999 V2000
    7.9560  -54.9270    9.0630 C   0  0  0  0  0  0  0  0  0  0  0  0
    9.1430  -55.5770    8.6600 O   0  0  0  0  0  0  0  0  0  0  0  0
    6.7420  -55.8280    8.8930 C   0  0  0  0  0  0  0  0  0  0  0  0
    7.0830  -57.1760    9.1840 O   0  0  0  0  0  0  0  0  0  0  0  0
    9.8940  -54.9800    8.7800 H   0  0  0  0  0  0  0  0  0  0  0  0
    6.3030  -57.7370    9.0720 H   0  0  0  0  0  0  0  0  0  0  0  0
    7.9850  -54.7400   10.1350 H   0  0  0  0  0  0  0  0  0  0  0  0
    7.8210  -53.9830    8.5310 H   0  0  0  0  0  0  0  0  0  0  0  0
    5.9440  -55.4890    9.5510 H   0  0  0  0  0  0  0  0  0  0  0  0
    6.3800  -55.7590    7.8650 H   0  0  0  0  0  0  0  0  0  0  0  0
  1  2  1  0  0  0  0
  1  3  1  0  0  0  0
  1  7  1  0  0  0  0
  1  8  1  0  0  0  0
  2  5  1  0  0  0  0
  3  4  1  0  0  0  0
  3  9  1  0  0  0  0
  3 10  1  0  0  0  0
  4  6  1  0  0  0  0
M  END
$$$$
