complex
  PyMOL3.0          3D                             0

 14 14  0  0  0  0  0  0  0  0999 V2000
  -45.1920   -7.5070    3.2850 C   0  0  0  0  0  0  0  0  0  0  0  0
  -45.8230   -7.7650    4.6490 C   0  0  0  0  0  0  0  0  0  0  0  0
  -44.8390   -7.6600    5.7140 N   0  0  0  0  0  0  0  0  0  0  0  0
  -46.4860   -9.1370    4.6630 C   0  0  0  0  0  0  0  0  0  0  0  0
  -47.1490   -9.3320    5.9060 O   0  0  0  0  0  0  0  0  0  0  0  0
  -47.4770   -9.2550    3.5120 C   0  0  0  0  0  0  0  0  0  0  0  0
  -47.9750  -10.5870    3.4390 O   0  0  0  0  0  0  0  0  0  0  0  0
  -46.8110   -8.8970    2.1840 C   0  0  0  0  0  0  0  0  0  0  0  0
  -46.1970   -7.6000    2.2660 O   0  0  0  0  0  0  0  0  0  0  0  0
  -47.7870   -8.8430    1.0310 C   0  0  0  0  0  0  0  0  0  0  0  0
  -47.1420   -9.0930   -0.2100 O   0  0  0  0  0  0  0  0  0  0  0  0
  -44.9760   -6.8310    6.7540 C   0  0  0  0  0  0  0  0  0  0  0  0
  -45.9550   -6.1020    6.8790 O   0  0  0  0  0  0  0  0  0  0  0  0
  -43.8640   -6.8460    7.7580 C   0  0  0  0  0  0  0  0  0  0  0  0
  1  2  1  0  0  0  0
  1  9  1  0  0  0  0
  2  3  1  0  0  0  0
  2  4  1  0  0  0  0
  3 12  1  0  0  0  0
  4  5  1  0  0  0  0
  4  6  1  0  0  0  0
  6  7  1  0  0  0  0
  6  8  1  0  0  0  0
  8  9  1  0  0  0  0
  8 10  1  0  0  0  0
 10 11  1  0  0  0  0
 12 13  2  0  0  0  0
 12 14  1  0  0  0  0
M  END
$$$$
