complex
  PyMOL3.0          3D                             0

 11 11  0  0  0  0  0  0  0  0999 V2000
  196.0600  245.4210  244.5990 C   0  0  0  0  0  0  0  0  0  0  0  0
  197.6010  245.2700  244.8280 C   0  0  0  0  0  0  0  0  0  0  0  0
  198.0380  243.9300  244.5960 O   0  0  0  0  0  0  0  0  0  0  0  0
  198.4010  246.1500  243.8410 C   0  0  0  0  0  0  0  0  0  0  0  0
  199.7900  245.8340  243.8600 O   0  0  0  0  0  0  0  0  0  0  0  0
  197.8510  246.0540  242.4000 C   0  0  0  0  0  0  0  0  0  0  0  0
  198.6000  246.8890  241.5340 O   0  0  0  0  0  0  0  0  0  0  0  0
  196.3540  246.4870  242.3760 C   0  0  0  0  0  0  0  0  0  0  0  0
  195.7640  246.5140  243.7230 O   0  0  0  0  0  0  0  0  0  0  0  0
  195.4760  245.6080  241.5040 C   0  0  0  0  0  0  0  0  0  0  0  0
  194.1150  245.9140  241.7990 O   0  0  0  0  0  0  0  0  0  0  0  0
  1  2  1  0  0  0  0
  1  9  1  0  0  0  0
  2  3  1  0  0  0  0
  2  4  1  0  0  0  0
  4  5  1  0  0  0  0
  4  6  1  0  0  0  0
  6  7  1  0  0  0  0
  6  8  1  0  0  0  0
  8  9  1  0  0  0  0
  8 10  1  0  0  0  0
 10 11  1  0  0  0  0
M  END
$$$$
