complex
  PyMOL3.0          3D                             0

 31 33  0  0  0  0  0  0  0  0999 V2000
  -48.9430  -12.7320   17.7010 P   0  0  0  0  0  0  0  0  0  0  0  0
  -49.4820  -14.5070   19.9900 P   0  0  0  0  0  0  0  0  0  0  0  0
  -48.5310  -17.1350   20.8210 P   0  0  0  0  0  0  0  0  0  0  0  0
  -48.6470  -14.4760   15.7790 C   0  0  0  0  0  0  0  0  0  0  0  0
  -49.5070  -13.8370   16.7450 O   0  0  0  0  0  0  0  0  0  0  0  0
  -49.4470  -15.6570   15.3190 C   0  0  0  0  0  0  0  0  0  0  0  0
  -48.8230  -16.2180   14.1470 O   0  0  0  0  0  0  0  0  0  0  0  0
  -49.5890  -16.8010   16.3320 C   0  0  0  0  0  0  0  0  0  0  0  0
  -50.9610  -17.1710   16.4250 O   0  0  0  0  0  0  0  0  0  0  0  0
  -48.7990  -17.9390   15.6780 C   0  0  0  0  0  0  0  0  0  0  0  0
  -49.3240  -19.2240   15.9820 O   0  0  0  0  0  0  0  0  0  0  0  0
  -49.0150  -17.6030   14.2060 C   0  0  0  0  0  0  0  0  0  0  0  0
  -48.5230  -20.8560   10.2440 N   0  0  0  0  0  0  0  0  0  0  0  0
  -47.7320  -12.0380   17.2260 O   0  5  0  0  0  0  0  0  0  0  0  0
  -50.9050  -14.5580   19.5750 O   0  5  0  0  0  0  0  0  0  0  0  0
  -48.1630  -16.5860   22.1550 O   0  0  0  0  0  0  0  0  0  0  0  0
  -49.5930  -20.3570   10.8640 C   0  0  0  0  0  0  0  0  0  0  0  0
  -50.1300  -11.8430   17.9490 O   0  0  0  0  0  0  0  0  0  0  0  0
  -49.2850  -13.9680   21.4010 O   0  0  0  0  0  0  0  0  0  0  0  0
  -47.4390  -17.9620   20.1730 O   0  5  0  0  0  0  0  0  0  0  0  0
  -49.6400  -19.4890   11.8870 N   0  0  0  0  0  0  0  0  0  0  0  0
  -48.6440  -13.5620   19.0230 O   0  0  0  0  0  0  0  0  0  0  0  0
  -48.7620  -15.9080   19.9000 O   0  0  0  0  0  0  0  0  0  0  0  0
  -49.8620  -17.9360   20.7470 O   0  0  0  0  0  0  0  0  0  0  0  0
  -48.4160  -19.1360   12.2860 C   0  0  0  0  0  0  0  0  0  0  0  0
  -47.2140  -19.5530   11.7340 C   0  0  0  0  0  0  0  0  0  0  0  0
  -47.2870  -20.4500   10.6480 C   0  0  0  0  0  0  0  0  0  0  0  0
  -46.2080  -20.9650   10.0390 N   0  0  0  0  0  0  0  0  0  0  0  0
  -46.1440  -18.9610   12.3860 N   0  0  0  0  0  0  0  0  0  0  0  0
  -46.7130  -18.2170   13.3090 C   0  0  0  0  0  0  0  0  0  0  0  0
  -48.0860  -18.2600   13.2890 N   0  0  0  0  0  0  0  0  0  0  0  0
  1  5  1  0  0  0  0
  1 14  1  0  0  0  0
  1 18  2  0  0  0  0
  1 22  1  0  0  0  0
  2 15  1  0  0  0  0
  2 19  2  0  0  0  0
  2 22  1  0  0  0  0
  2 23  1  0  0  0  0
  3 16  1  0  0  0  0
  3 20  1  0  0  0  0
  3 23  1  0  0  0  0
  3 24  2  0  0  0  0
  4  5  1  0  0  0  0
  4  6  1  0  0  0  0
  6  7  1  0  0  0  0
  6  8  1  0  0  0  0
  7 12  1  0  0  0  0
  8  9  1  0  0  0  0
  8 10  1  0  0  0  0
 10 11  1  0  0  0  0
 10 12  1  0  0  0  0
 12 31  1  0  0  0  0
 13 17  4  0  0  0  0
 13 27  4  0  0  0  0
 17 21  4  0  0  0  0
 21 25  4  0  0  0  0
 25 26  4  0  0  0  0
 25 31  4  0  0  0  0
 26 27  4  0  0  0  0
 26 29  4  0  0  0  0
 27 28  1  0  0  0  0
 29 30  4  0  0  0  0
 30 31  4  0  0  0  0
M  END
$$$$
