complex
  PyMOL3.0          3D                             0

 14 14  0  0  0  0  0  0  0  0999 V2000
  263.6150  193.6310  263.9170 C   0  0  0  0  0  0  0  0  0  0  0  0
  264.3760  194.7830  264.5920 C   0  0  0  0  0  0  0  0  0  0  0  0
  263.7760  196.0670  264.2650 N   0  0  0  0  0  0  0  0  0  0  0  0
  265.8510  194.7640  264.1820 C   0  0  0  0  0  0  0  0  0  0  0  0
  266.5520  195.7660  264.9110 O   0  0  0  0  0  0  0  0  0  0  0  0
  266.4750  193.3980  264.4450 C   0  0  0  0  0  0  0  0  0  0  0  0
  267.8150  193.3710  263.9680 O   0  0  0  0  0  0  0  0  0  0  0  0
  265.6650  192.3120  263.7400 C   0  0  0  0  0  0  0  0  0  0  0  0
  264.2970  192.3720  264.1770 O   0  0  0  0  0  0  0  0  0  0  0  0
  266.1580  190.9150  264.0380 C   0  0  0  0  0  0  0  0  0  0  0  0
  266.9310  190.8740  265.2290 O   0  0  0  0  0  0  0  0  0  0  0  0
  262.9380  196.7110  265.0820 C   0  0  0  0  0  0  0  0  0  0  0  0
  262.6120  196.2530  266.1730 O   0  0  0  0  0  0  0  0  0  0  0  0
  262.4150  198.0240  264.5830 C   0  0  0  0  0  0  0  0  0  0  0  0
  1  2  1  0  0  0  0
  1  9  1  0  0  0  0
  2  3  1  0  0  0  0
  2  4  1  0  0  0  0
  3 12  1  0  0  0  0
  4  5  1  0  0  0  0
  4  6  1  0  0  0  0
  6  7  1  0  0  0  0
  6  8  1  0  0  0  0
  8  9  1  0  0  0  0
  8 10  1  0  0  0  0
 10 11  1  0  0  0  0
 12 13  2  0  0  0  0
 12 14  1  0  0  0  0
M  END
$$$$
