complex
  PyMOL3.0          3D                             0

 14 13  0  0  0  0  0  0  0  0999 V2000
  -42.0490   49.4680  -12.7200 C   0  0  0  0  0  0  0  0  0  0  0  0
  -42.5080   48.3790  -13.4530 O   0  0  0  0  0  0  0  0  0  0  0  0
  -41.6410   48.8270  -11.4010 C   0  0  0  0  0  0  0  0  0  0  0  0
  -42.7200   48.1390  -10.7960 O   0  0  0  0  0  0  0  0  0  0  0  0
  -40.6300   47.7390  -11.7430 C   0  0  0  0  0  0  0  0  0  0  0  0
  -39.8860   48.1710  -12.8360 O   0  0  0  0  0  0  0  0  0  0  0  0
  -42.9640   47.7510  -12.9220 H   0  0  0  0  0  0  0  0  0  0  0  0
  -42.4320   47.4790  -10.1880 H   0  0  0  0  0  0  0  0  0  0  0  0
  -39.6360   47.4380  -13.3410 H   0  0  0  0  0  0  0  0  0  0  0  0
  -41.2750   49.6030  -10.7390 H   0  0  0  0  0  0  0  0  0  0  0  0
  -42.8340   50.2000  -12.5740 H   0  0  0  0  0  0  0  0  0  0  0  0
  -41.2030   49.9380  -13.2060 H   0  0  0  0  0  0  0  0  0  0  0  0
  -41.1480   46.8210  -11.9900 H   0  0  0  0  0  0  0  0  0  0  0  0
  -39.9750   47.5670  -10.8970 H   0  0  0  0  0  0  0  0  0  0  0  0
  1  2  1  0  0  0  0
  1  3  1  0  0  0  0
  1 11  1  0  0  0  0
  1 12  1  0  0  0  0
  2  7  1  0  0  0  0
  3  4  1  0  0  0  0
  3  5  1  0  0  0  0
  3 10  1  0  0  0  0
  4  8  1  0  0  0  0
  5  6  1  0  0  0  0
  5 13  1  0  0  0  0
  5 14  1  0  0  0  0
  6  9  1  0  0  0  0
M  END
$$$$
