complex
  PyMOL3.0          3D                             0

 10  9  0  0  0  0  0  0  0  0999 V2000
   49.9780   45.9340    2.0280 N   0  0  0  0  0  0  0  0  0  0  0  0
   49.0820   45.4370    0.9570 C   0  0  0  0  0  0  0  0  0  0  0  0
   49.6780   44.1720    0.3440 C   0  0  0  0  0  0  0  0  0  0  0  0
   48.9200   43.2670   -0.0570 O   0  0  0  0  0  0  0  0  0  0  0  0
   48.7610   46.4970   -0.0930 C   0  0  0  0  0  0  0  0  0  0  0  0
   47.6810   47.7920    0.5860 S   0  0  0  0  0  0  0  0  0  0  0  0
   46.0740   46.5230    0.3000 S   0  0  0  0  0  0  0  0  0  0  0  0
   44.6970   46.5490   -0.8700 C   0  0  0  0  0  0  0  0  0  0  0  0
   43.9830   47.8510   -0.8960 C   0  0  0  0  0  0  0  0  0  0  0  0
   42.8580   47.6810   -1.7260 O   0  0  0  0  0  0  0  0  0  0  0  0
  1  2  1  0  0  0  0
  2  3  1  0  0  0  0
  2  5  1  0  0  0  0
  3  4  2  0  0  0  0
  5  6  1  0  0  0  0
  6  7  1  0  0  0  0
  7  8  1  0  0  0  0
  8  9  1  0  0  0  0
  9 10  1  0  0  0  0
M  END
$$$$
