complex
  PyMOL3.0          3D                             0

  5  4  0  0  0  0  0  0  0  0999 V2000
    1.2230  -12.9080   -0.1860 O   0  0  0  0  0  0  0  0  0  0  0  0
   -0.1930  -11.3020   -1.1530 O   0  0  0  0  0  0  0  0  0  0  0  0
   -1.1040  -13.0680    0.0990 O   0  5  0  0  0  0  0  0  0  0  0  0
    0.0980  -11.3630    1.1790 O   0  0  0  0  0  0  0  0  0  0  0  0
    0.0060  -12.1600   -0.0150 S   0  0  0  0  0  0  0  0  0  0  0  0
  1  5  1  0  0  0  0
  2  5  1  0  0  0  0
  3  5  1  0  0  0  0
  4  5  2  0  0  0  0
M  END
$$$$
