complex
  PyMOL3.0          3D                             0

  5  4  0  0  0  0  0  0  0  0999 V2000
  -50.1630  -65.6830   11.2130 O   0  0  0  0  0  0  0  0  0  0  0  0
  -52.2590  -65.5050    9.9030 O   0  0  0  0  0  0  0  0  0  0  0  0
  -51.8770  -63.9650   11.6950 O   0  5  0  0  0  0  0  0  0  0  0  0
  -52.2610  -66.3130   12.1760 O   0  0  0  0  0  0  0  0  0  0  0  0
  -51.6480  -65.3780   11.2430 S   0  0  0  0  0  0  0  0  0  0  0  0
  1  5  1  0  0  0  0
  2  5  1  0  0  0  0
  3  5  1  0  0  0  0
  4  5  2  0  0  0  0
M  END
$$$$
