complex
  PyMOL3.0          3D                             0

  5  4  0  0  0  0  0  0  0  0999 V2000
   70.0690    0.2160  101.4400 O   0  0  0  0  0  0  0  0  0  0  0  0
   70.4460   -2.0530  102.0660 O   0  0  0  0  0  0  0  0  0  0  0  0
   68.7010   -0.7990  103.1000 O   0  5  0  0  0  0  0  0  0  0  0  0
   70.9740   -0.2780  103.5890 O   0  0  0  0  0  0  0  0  0  0  0  0
   70.0520   -0.7310  102.5500 S   0  0  0  0  0  0  0  0  0  0  0  0
  1  5  1  0  0  0  0
  2  5  1  0  0  0  0
  3  5  1  0  0  0  0
  4  5  2  0  0  0  0
M  END
$$$$
