complex
  PyMOL3.0          3D                             0

113120  0  0  0  0  0  0  0  0999 V2000
    5.7150   21.4740   14.8680 N   0  0  0  0  0  0  0  0  0  0  0  0
    1.6450   24.0370   22.1630 C   0  0  0  0  0  0  0  0  0  0  0  0
    1.4500   24.8020   20.9700 O   0  0  0  0  0  0  0  0  0  0  0  0
   11.6040   20.1250   16.7610 P   0  0  0  0  0  0  0  0  0  0  0  0
   13.2980   21.1310   14.5540 P   0  0  0  0  0  0  0  0  0  0  0  0
    2.4570   25.7810   20.7210 C   0  0  0  0  0  0  0  0  0  0  0  0
    5.7330   21.2060   10.6660 N   0  0  0  0  0  0  0  0  0  0  0  0
    2.9600   24.5040   18.7680 O   0  0  0  0  0  0  0  0  0  0  0  0
    3.5330   25.0960   19.9520 C   0  0  0  0  0  0  0  0  0  0  0  0
    9.0460   16.0000   15.4140 N   0  0  0  0  0  0  0  0  0  0  0  0
    4.2810   22.9910   10.5670 O   0  0  0  0  0  0  0  0  0  0  0  0
    3.6920   23.4510   18.1120 C   0  0  0  0  0  0  0  0  0  0  0  0
    9.4320   15.2940   14.3220 N   0  0  0  0  0  0  0  0  0  0  0  0
    9.6970   16.6520   17.5720 O   0  0  0  0  0  0  0  0  0  0  0  0
    5.1150   23.8550   17.7710 C   0  0  0  0  0  0  0  0  0  0  0  0
    9.0350   22.7810   12.4130 N   0  0  0  0  0  0  0  0  0  0  0  0
   11.0080   18.7620   16.3540 O   0  0  0  0  0  0  0  0  0  0  0  0
    5.8070   22.7850   16.9240 C   0  0  0  0  0  0  0  0  0  0  0  0
    8.6400   23.6910   14.4320 N   0  0  0  0  0  0  0  0  0  0  0  0
   10.5700   21.1270   16.3340 O   0  0  0  0  0  0  0  0  0  0  0  0
    5.0210   22.4860   15.6600 C   0  0  0  0  0  0  0  0  0  0  0  0
    6.5920   25.9680   14.6790 N   0  0  0  0  0  0  0  0  0  0  0  0
   12.0490   20.0550   18.2010 O   0  0  0  0  0  0  0  0  0  0  0  0
    3.6050   22.0510   16.0050 C   0  0  0  0  0  0  0  0  0  0  0  0
    6.3100   25.7480   12.3890 N   0  0  0  0  0  0  0  0  0  0  0  0
   12.8950   20.3190   15.8590 O   0  0  0  0  0  0  0  0  0  0  0  0
    2.8950   23.1050   16.8660 C   0  0  0  0  0  0  0  0  0  0  0  0
    7.5220   24.1310   11.0620 N   0  0  0  0  0  0  0  0  0  0  0  0
   13.2760   22.6250   14.8830 O   0  0  0  0  0  0  0  0  0  0  0  0
    5.6740   21.3880   13.4600 C   0  0  0  0  0  0  0  0  0  0  0  0
   14.5340   20.5180   14.0030 O   0  0  0  0  0  0  0  0  0  0  0  0
    4.9480   22.2590   12.6960 C   0  0  0  0  0  0  0  0  0  0  0  0
   12.0910   20.9090   13.5720 O   0  0  0  0  0  0  0  0  0  0  0  0
    4.9130   22.1820   11.2610 C   0  0  0  0  0  0  0  0  0  0  0  0
    9.7190   20.6120   11.9850 O   0  0  0  0  0  0  0  0  0  0  0  0
    5.7860   21.1570    9.2030 C   0  0  0  0  0  0  0  0  0  0  0  0
   11.1180   23.2350   10.0070 O   0  0  0  0  0  0  0  0  0  0  0  0
    6.4570   20.2460   11.4110 C   0  0  0  0  0  0  0  0  0  0  0  0
   11.3660   20.6340    9.3400 O   0  0  0  0  0  0  0  0  0  0  0  0
    6.4370   20.3010   12.8190 C   0  0  0  0  0  0  0  0  0  0  0  0
   11.8360   14.7840   18.9710 O   0  0  0  0  0  0  0  0  0  0  0  0
    7.1100   19.3180   13.5480 C   0  0  0  0  0  0  0  0  0  0  0  0
    9.9600   13.3810   17.7040 O   0  0  0  0  0  0  0  0  0  0  0  0
    7.8170   18.3030   12.9100 C   0  0  0  0  0  0  0  0  0  0  0  0
    7.8190   18.2510   11.5170 C   0  0  0  0  0  0  0  0  0  0  0  0
    7.1630   19.2180   10.7760 C   0  0  0  0  0  0  0  0  0  0  0  0
    8.4590   17.2460   13.7190 C   0  0  0  0  0  0  0  0  0  0  0  0
    8.4570   17.1640   15.0910 C   0  0  0  0  0  0  0  0  0  0  0  0
    9.0230   16.0300   13.3000 C   0  0  0  0  0  0  0  0  0  0  0  0
    9.3020   15.5440   16.7920 C   0  0  0  0  0  0  0  0  0  0  0  0
   11.1400   16.7020   17.6370 C   0  0  0  0  0  0  0  0  0  0  0  0
   11.6940   17.4930   16.4680 C   0  0  0  0  0  0  0  0  0  0  0  0
   11.7240   19.6780   12.9470 C   0  0  0  0  0  0  0  0  0  0  0  0
   10.9810   19.9870   11.6670 C   0  0  0  0  0  0  0  0  0  0  0  0
    9.6510   21.9070   11.4240 C   0  0  0  0  0  0  0  0  0  0  0  0
   11.0920   22.3000   11.0790 C   0  0  0  0  0  0  0  0  0  0  0  0
   11.6800   20.9430   10.6950 C   0  0  0  0  0  0  0  0  0  0  0  0
    9.3330   22.8130   13.7500 C   0  0  0  0  0  0  0  0  0  0  0  0
    7.8500   24.3040   13.4690 C   0  0  0  0  0  0  0  0  0  0  0  0
    6.9090   25.3490   13.5410 C   0  0  0  0  0  0  0  0  0  0  0  0
    6.6610   25.1430   11.2450 C   0  0  0  0  0  0  0  0  0  0  0  0
    8.0990   23.7690   12.2150 C   0  0  0  0  0  0  0  0  0  0  0  0
   11.5760   15.2320   17.6460 C   0  0  0  0  0  0  0  0  0  0  0  0
   10.4250   14.4850   16.9190 C   0  0  0  0  0  0  0  0  0  0  0  0
    3.7410   22.5640   18.7410 H   0  0  0  0  0  0  0  0  0  0  0  0
    4.9580   23.4180   15.1030 H   0  0  0  0  0  0  0  0  0  0  0  0
    2.0780   23.0570   21.9690 H   0  0  0  0  0  0  0  0  0  0  0  0
    2.2480   24.5270   22.9260 H   0  0  0  0  0  0  0  0  0  0  0  0
    0.6370   23.9020   22.5520 H   0  0  0  0  0  0  0  0  0  0  0  0
    2.8510   26.2410   21.6270 H   0  0  0  0  0  0  0  0  0  0  0  0
    2.0530   26.6020   20.1300 H   0  0  0  0  0  0  0  0  0  0  0  0
    3.9700   24.2740   20.5210 H   0  0  0  0  0  0  0  0  0  0  0  0
    4.3480   25.7880   19.7430 H   0  0  0  0  0  0  0  0  0  0  0  0
    5.1140   24.8180   17.2620 H   0  0  0  0  0  0  0  0  0  0  0  0
    5.7160   24.0100   18.6660 H   0  0  0  0  0  0  0  0  0  0  0  0
    6.8220   23.1040   16.6910 H   0  0  0  0  0  0  0  0  0  0  0  0
    5.9330   21.8730   17.5060 H   0  0  0  0  0  0  0  0  0  0  0  0
    3.6430   21.1000   16.5350 H   0  0  0  0  0  0  0  0  0  0  0  0
    3.0280   21.8460   15.1050 H   0  0  0  0  0  0  0  0  0  0  0  0
    2.6920   24.0070   16.2920 H   0  0  0  0  0  0  0  0  0  0  0  0
    1.9030   22.7420   17.1290 H   0  0  0  0  0  0  0  0  0  0  0  0
    6.1620   20.7570   15.4200 H   0  0  0  0  0  0  0  0  0  0  0  0
    4.4050   23.1250   13.0680 H   0  0  0  0  0  0  0  0  0  0  0  0
    5.2000   21.9390    8.7260 H   0  0  0  0  0  0  0  0  0  0  0  0
    5.3870   20.2330    8.7840 H   0  0  0  0  0  0  0  0  0  0  0  0
    6.8020   21.2400    8.8190 H   0  0  0  0  0  0  0  0  0  0  0  0
    7.1510   19.3410   14.6310 H   0  0  0  0  0  0  0  0  0  0  0  0
    8.3590   17.4610   11.0000 H   0  0  0  0  0  0  0  0  0  0  0  0
    7.1820   19.0520    9.7000 H   0  0  0  0  0  0  0  0  0  0  0  0
    8.0800   17.8830   15.8170 H   0  0  0  0  0  0  0  0  0  0  0  0
    9.1980   15.7150   12.2720 H   0  0  0  0  0  0  0  0  0  0  0  0
    8.3250   15.2740   17.2030 H   0  0  0  0  0  0  0  0  0  0  0  0
   11.3630   17.2590   18.5510 H   0  0  0  0  0  0  0  0  0  0  0  0
   12.7610   17.6850   16.5880 H   0  0  0  0  0  0  0  0  0  0  0  0
   11.5910   16.9510   15.5290 H   0  0  0  0  0  0  0  0  0  0  0  0
    9.6970   20.9390   15.9000 H   0  0  0  0  0  0  0  0  0  0  0  0
   12.9340   23.3790   14.3350 H   0  0  0  0  0  0  0  0  0  0  0  0
   11.1070   19.1500   13.6730 H   0  0  0  0  0  0  0  0  0  0  0  0
   12.6070   19.0690   12.7580 H   0  0  0  0  0  0  0  0  0  0  0  0
   10.7080   19.0270   11.2240 H   0  0  0  0  0  0  0  0  0  0  0  0
    8.9900   21.8430   10.5610 H   0  0  0  0  0  0  0  0  0  0  0  0
   11.6320   22.8150   11.8730 H   0  0  0  0  0  0  0  0  0  0  0  0
   10.6490   24.0660   10.2820 H   0  0  0  0  0  0  0  0  0  0  0  0
   12.7680   20.9090   10.7330 H   0  0  0  0  0  0  0  0  0  0  0  0
   11.7610   19.7570    9.0930 H   0  0  0  0  0  0  0  0  0  0  0  0
   10.0340   22.1290   14.2260 H   0  0  0  0  0  0  0  0  0  0  0  0
    7.0260   25.6800   15.5510 H   0  0  0  0  0  0  0  0  0  0  0  0
    5.9020   26.6900   14.7180 H   0  0  0  0  0  0  0  0  0  0  0  0
    6.1290   25.4890   10.3600 H   0  0  0  0  0  0  0  0  0  0  0  0
   12.5390   15.0660   17.1620 H   0  0  0  0  0  0  0  0  0  0  0  0
   12.5710   15.3250   19.3610 H   0  0  0  0  0  0  0  0  0  0  0  0
   10.7760   14.0940   15.9660 H   0  0  0  0  0  0  0  0  0  0  0  0
    9.2580   12.9370   17.1590 H   0  0  0  0  0  0  0  0  0  0  0  0
  1 21  1  0  0  0  0
  1 30  1  0  0  0  0
  1 82  1  0  0  0  0
  2  3  1  0  0  0  0
  2 67  1  0  0  0  0
  2 68  1  0  0  0  0
  2 69  1  0  0  0  0
  3  6  1  0  0  0  0
  4 17  1  0  0  0  0
  4 20  1  0  0  0  0
  4 23  1  0  0  0  0
  4 26  1  0  0  0  0
  5 26  1  0  0  0  0
  5 29  1  0  0  0  0
  5 31  1  0  0  0  0
  5 33  1  0  0  0  0
  6  9  1  0  0  0  0
  6 70  1  0  0  0  0
  6 71  1  0  0  0  0
  7 34  4  0  0  0  0
  7 36  1  0  0  0  0
  7 38  4  0  0  0  0
  8  9  1  0  0  0  0
  8 12  1  0  0  0  0
  9 72  1  0  0  0  0
  9 73  1  0  0  0  0
 10 13  4  0  0  0  0
 10 48  4  0  0  0  0
 10 50  1  0  0  0  0
 11 34  2  0  0  0  0
 12 15  1  0  0  0  0
 12 27  1  0  0  0  0
 12 65  1  0  0  0  0
 13 49  4  0  0  0  0
 14 50  1  0  0  0  0
 14 51  1  0  0  0  0
 15 18  1  0  0  0  0
 15 74  1  0  0  0  0
 15 75  1  0  0  0  0
 16 55  1  0  0  0  0
 16 58  4  0  0  0  0
 16 62  4  0  0  0  0
 17 52  1  0  0  0  0
 18 21  1  0  0  0  0
 18 76  1  0  0  0  0
 18 77  1  0  0  0  0
 19 58  4  0  0  0  0
 19 59  4  0  0  0  0
 20 96  1  0  0  0  0
 21 24  1  0  0  0  0
 21 66  1  0  0  0  0
 22 60  1  0  0  0  0
 22107  1  0  0  0  0
 22108  1  0  0  0  0
 24 27  1  0  0  0  0
 24 78  1  0  0  0  0
 24 79  1  0  0  0  0
 25 60  4  0  0  0  0
 25 61  4  0  0  0  0
 27 80  1  0  0  0  0
 27 81  1  0  0  0  0
 28 61  4  0  0  0  0
 28 62  4  0  0  0  0
 29 97  1  0  0  0  0
 30 32  4  0  0  0  0
 30 40  4  0  0  0  0
 32 34  4  0  0  0  0
 32 83  1  0  0  0  0
 33 53  1  0  0  0  0
 35 54  1  0  0  0  0
 35 55  1  0  0  0  0
 36 84  1  0  0  0  0
 36 85  1  0  0  0  0
 36 86  1  0  0  0  0
 37 56  1  0  0  0  0
 37103  1  0  0  0  0
 38 40  4  0  0  0  0
 38 46  4  0  0  0  0
 39 57  1  0  0  0  0
 39105  1  0  0  0  0
 40 42  4  0  0  0  0
 41 63  1  0  0  0  0
 41111  1  0  0  0  0
 42 44  4  0  0  0  0
 42 87  1  0  0  0  0
 43 64  1  0  0  0  0
 43113  1  0  0  0  0
 44 45  4  0  0  0  0
 44 47  1  0  0  0  0
 45 46  4  0  0  0  0
 45 88  1  0  0  0  0
 46 89  1  0  0  0  0
 47 48  4  0  0  0  0
 47 49  4  0  0  0  0
 48 90  1  0  0  0  0
 49 91  1  0  0  0  0
 50 64  1  0  0  0  0
 50 92  1  0  0  0  0
 51 52  1  0  0  0  0
 51 63  1  0  0  0  0
 51 93  1  0  0  0  0
 52 94  1  0  0  0  0
 52 95  1  0  0  0  0
 53 54  1  0  0  0  0
 53 98  1  0  0  0  0
 53 99  1  0  0  0  0
 54 57  1  0  0  0  0
 54100  1  0  0  0  0
 55 56  1  0  0  0  0
 55101  1  0  0  0  0
 56 57  1  0  0  0  0
 56102  1  0  0  0  0
 57104  1  0  0  0  0
 58106  1  0  0  0  0
 59 60  4  0  0  0  0
 59 62  4  0  0  0  0
 61109  1  0  0  0  0
 63 64  1  0  0  0  0
 63110  1  0  0  0  0
 64112  1  0  0  0  0
M  END
$$$$
