complex
  PyMOL3.0          3D                             0

 35 34  0  0  0  0  0  0  0  0999 V2000
  -22.2490   40.0060  -15.3780 C   0  0  0  0  0  0  0  0  0  0  0  0
  -26.6190   38.5880  -17.7590 C   0  0  0  0  0  0  0  0  0  0  0  0
  -25.8730   42.4150  -18.2720 C   0  0  0  0  0  0  0  0  0  0  0  0
  -22.3530   39.4890  -16.8150 C   0  0  0  0  0  0  0  0  0  0  0  0
  -27.7610   38.3120  -16.8030 C   0  0  0  0  0  0  0  0  0  0  0  0
  -22.8330   38.0320  -16.8760 C   0  0  0  0  0  0  0  0  0  0  0  0
  -29.0380   37.2980  -17.6320 S   0  0  0  0  0  0  0  0  0  0  0  0
  -24.1360   38.0290  -17.6810 C   0  0  0  0  0  0  0  0  0  0  0  0
  -24.1660   37.6300  -18.7970 O   0  0  0  0  0  0  0  0  0  0  0  0
  -23.6450   40.1370  -14.7640 C   0  0  0  0  0  0  0  0  0  0  0  0
  -21.4490   39.0930  -14.5810 N   0  0  0  0  0  0  0  0  0  0  0  0
  -26.7110   40.0210  -18.3240 C   0  0  0  0  0  0  0  0  0  0  0  0
  -25.3440   38.5340  -17.0530 N   0  0  0  0  0  0  0  0  0  0  0  0
  -27.4960   40.2930  -19.1720 O   0  0  0  0  0  0  0  0  0  0  0  0
  -24.5780   42.7290  -19.0220 C   0  0  0  0  0  0  0  0  0  0  0  0
  -25.8220   41.0470  -17.7820 N   0  0  0  0  0  0  0  0  0  0  0  0
  -24.2290   41.2590  -14.7610 O   0  0  0  0  0  0  0  0  0  0  0  0
  -24.2150   39.1240  -14.2670 O   0  0  0  0  0  0  0  0  0  0  0  0
  -24.2020   42.0010  -19.9780 O   0  0  0  0  0  0  0  0  0  0  0  0
  -23.8860   43.7210  -18.6850 O   0  0  0  0  0  0  0  0  0  0  0  0
  -20.8800   38.6580  -15.1100 H   0  0  0  0  0  0  0  0  0  0  0  0
  -21.9830   38.5080  -14.1750 H   0  0  0  0  0  0  0  0  0  0  0  0
  -25.3030   38.8280  -16.2460 H   0  0  0  0  0  0  0  0  0  0  0  0
  -25.2600   40.8430  -17.1640 H   0  0  0  0  0  0  0  0  0  0  0  0
  -21.8230   40.8770  -15.3850 H   0  0  0  0  0  0  0  0  0  0  0  0
  -26.6270   37.9430  -18.4830 H   0  0  0  0  0  0  0  0  0  0  0  0
  -26.6280   42.5200  -18.8710 H   0  0  0  0  0  0  0  0  0  0  0  0
  -25.9680   43.0230  -17.5230 H   0  0  0  0  0  0  0  0  0  0  0  0
  -22.9780   40.0460  -17.3050 H   0  0  0  0  0  0  0  0  0  0  0  0
  -21.4810   39.5500  -17.2350 H   0  0  0  0  0  0  0  0  0  0  0  0
  -28.1520   39.1530  -16.5180 H   0  0  0  0  0  0  0  0  0  0  0  0
  -27.4240   37.8350  -16.0280 H   0  0  0  0  0  0  0  0  0  0  0  0
  -22.9990   37.6940  -15.9820 H   0  0  0  0  0  0  0  0  0  0  0  0
  -22.1680   37.4830  -17.3200 H   0  0  0  0  0  0  0  0  0  0  0  0
  -29.1240   37.6260  -18.7830 H   0  0  0  0  0  0  0  0  0  0  0  0
  1  4  1  0  0  0  0
  1 10  1  0  0  0  0
  1 11  1  0  0  0  0
  1 25  1  0  0  0  0
  2  5  1  0  0  0  0
  2 12  1  0  0  0  0
  2 13  1  0  0  0  0
  2 26  1  0  0  0  0
  3 15  1  0  0  0  0
  3 16  1  0  0  0  0
  3 27  1  0  0  0  0
  3 28  1  0  0  0  0
  4  6  1  0  0  0  0
  4 29  1  0  0  0  0
  4 30  1  0  0  0  0
  5  7  1  0  0  0  0
  5 31  1  0  0  0  0
  5 32  1  0  0  0  0
  6  8  1  0  0  0  0
  6 33  1  0  0  0  0
  6 34  1  0  0  0  0
  7 35  1  0  0  0  0
  8  9  2  0  0  0  0
  8 13  1  0  0  0  0
 10 17  4  0  0  0  0
 10 18  4  0  0  0  0
 11 21  1  0  0  0  0
 11 22  1  0  0  0  0
 12 14  2  0  0  0  0
 12 16  1  0  0  0  0
 13 23  1  0  0  0  0
 15 19  4  0  0  0  0
 15 20  4  0  0  0  0
 16 24  1  0  0  0  0
M  END
$$$$
