complex
  PyMOL3.0          3D                             0

 44 48  0  0  0  0  0  0  0  0999 V2000
  212.2770  201.4180  245.8080 P   0  0  0  0  0  0  0  0  0  0  0  0
  215.1120  202.1480  246.2610 P   0  0  0  0  0  0  0  0  0  0  0  0
  211.4060  195.4280  245.9450 C   0  0  0  0  0  0  0  0  0  0  0  0
  217.9780  201.7870  250.7190 C   0  0  0  0  0  0  0  0  0  0  0  0
  212.2990  190.6780  247.7470 N   0  0  0  0  0  0  0  0  0  0  0  0
  218.8620  202.9860  250.6680 N   0  0  0  0  0  0  0  0  0  0  0  0
  211.1470  201.4810  246.7800 O   0  5  0  0  0  0  0  0  0  0  0  0
  215.0190  203.6260  246.0710 O   0  5  0  0  0  0  0  0  0  0  0  0
  212.7010  191.3040  246.6350 C   0  0  0  0  0  0  0  0  0  0  0  0
  210.1900  196.2680  245.5820 C   0  0  0  0  0  0  0  0  0  0  0  0
  216.5130  202.1550  250.9050 C   0  0  0  0  0  0  0  0  0  0  0  0
  220.0420  203.0020  251.3690 C   0  0  0  0  0  0  0  0  0  0  0  0
  212.2750  202.3750  244.6620 O   0  0  0  0  0  0  0  0  0  0  0  0
  209.1850  195.5600  244.8910 O   0  0  0  0  0  0  0  0  0  0  0  0
  216.2090  202.5540  252.2310 O   0  0  0  0  0  0  0  0  0  0  0  0
  215.7080  201.3350  245.1610 O   0  0  0  0  0  0  0  0  0  0  0  0
  210.8730  197.3560  244.7480 C   0  0  0  0  0  0  0  0  0  0  0  0
  215.8200  200.8630  250.4640 C   0  0  0  0  0  0  0  0  0  0  0  0
  220.8610  204.1220  251.3410 C   0  0  0  0  0  0  0  0  0  0  0  0
  212.4380  192.5410  246.2240 N   0  0  0  0  0  0  0  0  0  0  0  0
  213.6560  201.5700  246.6130 O   0  0  0  0  0  0  0  0  0  0  0  0
  211.0690  196.8800  243.4230 O   0  0  0  0  0  0  0  0  0  0  0  0
  215.8110  199.9110  251.5190 O   0  0  0  0  0  0  0  0  0  0  0  0
  211.6540  193.1840  247.1040 C   0  0  0  0  0  0  0  0  0  0  0  0
  212.2350  197.5180  245.4440 C   0  0  0  0  0  0  0  0  0  0  0  0
  216.7480  200.3780  249.3400 C   0  0  0  0  0  0  0  0  0  0  0  0
  220.4820  205.2180  250.5740 C   0  0  0  0  0  0  0  0  0  0  0  0
  212.3340  196.3980  246.3630 O   0  0  0  0  0  0  0  0  0  0  0  0
  217.9230  201.2120  249.4260 O   0  0  0  0  0  0  0  0  0  0  0  0
  211.1620  192.6740  248.2890 C   0  0  0  0  0  0  0  0  0  0  0  0
  212.4580  198.8130  246.1880 C   0  0  0  0  0  0  0  0  0  0  0  0
  216.1910  200.4550  247.9410 C   0  0  0  0  0  0  0  0  0  0  0  0
  219.3070  205.1780  249.8590 C   0  0  0  0  0  0  0  0  0  0  0  0
  212.3880  199.9180  245.2480 O   0  0  0  0  0  0  0  0  0  0  0  0
  215.8910  201.8350  247.6250 O   0  0  0  0  0  0  0  0  0  0  0  0
  211.5120  191.3510  248.6180 C   0  0  0  0  0  0  0  0  0  0  0  0
  218.5100  204.0580  249.9230 C   0  0  0  0  0  0  0  0  0  0  0  0
  211.1080  190.7330  249.7230 N   0  0  0  0  0  0  0  0  0  0  0  0
  222.1410  204.1000  252.1360 C   0  0  0  0  0  0  0  0  0  0  0  0
  210.3880  193.6240  248.9390 N   0  0  0  0  0  0  0  0  0  0  0  0
  222.8630  205.2100  252.1690 N   0  0  0  0  0  0  0  0  0  0  0  0
  222.4710  203.0720  252.7210 O   0  0  0  0  0  0  0  0  0  0  0  0
  210.4200  194.6660  248.1480 C   0  0  0  0  0  0  0  0  0  0  0  0
  211.1780  194.4720  247.0220 N   0  0  0  0  0  0  0  0  0  0  0  0
  1  7  1  0  0  0  0
  1 13  2  0  0  0  0
  1 21  1  0  0  0  0
  1 34  1  0  0  0  0
  2  8  1  0  0  0  0
  2 16  2  0  0  0  0
  2 21  1  0  0  0  0
  2 35  1  0  0  0  0
  3 10  1  0  0  0  0
  3 28  1  0  0  0  0
  3 44  1  0  0  0  0
  4  6  1  0  0  0  0
  4 11  1  0  0  0  0
  4 29  1  0  0  0  0
  5  9  4  0  0  0  0
  5 36  4  0  0  0  0
  6 12  4  0  0  0  0
  6 37  4  0  0  0  0
  9 20  4  0  0  0  0
 10 14  1  0  0  0  0
 10 17  1  0  0  0  0
 11 15  1  0  0  0  0
 11 18  1  0  0  0  0
 12 19  4  0  0  0  0
 17 22  1  0  0  0  0
 17 25  1  0  0  0  0
 18 23  1  0  0  0  0
 18 26  1  0  0  0  0
 19 27  4  0  0  0  0
 19 39  1  0  0  0  0
 20 24  4  0  0  0  0
 24 30  4  0  0  0  0
 24 44  4  0  0  0  0
 25 28  1  0  0  0  0
 25 31  1  0  0  0  0
 26 29  1  0  0  0  0
 26 32  1  0  0  0  0
 27 33  4  0  0  0  0
 30 36  4  0  0  0  0
 30 40  4  0  0  0  0
 31 34  1  0  0  0  0
 32 35  1  0  0  0  0
 33 37  4  0  0  0  0
 36 38  1  0  0  0  0
 39 41  1  0  0  0  0
 39 42  2  0  0  0  0
 40 43  4  0  0  0  0
 43 44  4  0  0  0  0
M  END
$$$$
