complex
  PyMOL3.0          3D                             0

 37 42  0  0  0  0  0  0  0  0999 V2000
  -22.1130    2.4110  -27.4780 C   0  0  0  0  0  0  0  0  0  0  0  0
  -22.0740    2.5140  -26.1640 N   0  0  0  0  0  0  0  0  0  0  0  0
  -24.2920    0.8550  -25.1300 O   0  0  0  0  0  0  0  0  0  0  0  0
  -20.8960    2.1810  -25.4120 C   0  0  0  0  0  0  0  0  0  0  0  0
  -23.2340    2.5790  -28.1830 N   0  0  0  0  0  0  0  0  0  0  0  0
  -25.2840    0.9520  -27.1080 O   0  0  0  0  0  0  0  0  0  0  0  0
  -20.2950    3.0860  -24.5450 C   0  0  0  0  0  0  0  0  0  0  0  0
  -24.7220    5.0790  -27.2500 O   0  0  0  0  0  0  0  0  0  0  0  0
  -19.1700    2.7860  -23.7800 C   0  0  0  0  0  0  0  0  0  0  0  0
  -23.6240    4.3920  -25.4740 O   0  0  0  0  0  0  0  0  0  0  0  0
  -18.6580    1.5110  -23.8960 C   0  0  0  0  0  0  0  0  0  0  0  0
  -19.2340    0.5840  -24.7170 C   0  0  0  0  0  0  0  0  0  0  0  0
  -20.3470    0.9060  -25.4500 C   0  0  0  0  0  0  0  0  0  0  0  0
  -23.1060    2.4110  -29.6010 C   0  0  0  0  0  0  0  0  0  0  0  0
  -22.6180    1.2490  -30.1580 C   0  0  0  0  0  0  0  0  0  0  0  0
  -22.4880    1.1120  -31.5170 C   0  0  0  0  0  0  0  0  0  0  0  0
  -22.8540    2.1370  -32.3320 C   0  0  0  0  0  0  0  0  0  0  0  0
  -20.6100    8.1410  -24.3630 O   0  0  0  0  0  0  0  0  0  0  0  0
  -23.3480    3.2870  -31.8210 C   0  0  0  0  0  0  0  0  0  0  0  0
  -28.7450    5.9510  -21.9250 O   0  0  0  0  0  0  0  0  0  0  0  0
  -23.4710    3.4450  -30.4600 C   0  0  0  0  0  0  0  0  0  0  0  0
  -24.6710    0.3050  -26.1970 C   0  0  0  0  0  0  0  0  0  0  0  0
  -24.3510   -1.1300  -26.3760 C   0  0  0  0  0  0  0  0  0  0  0  0
  -21.1210    7.3470  -25.1740 C   0  0  0  0  0  0  0  0  0  0  0  0
  -28.0470    5.4860  -22.8550 C   0  0  0  0  0  0  0  0  0  0  0  0
  -22.5210    6.8370  -24.8840 C   0  0  0  0  0  0  0  0  0  0  0  0
  -20.5480    6.9480  -26.2100 O   0  0  0  0  0  0  0  0  0  0  0  0
  -28.2020    4.0190  -23.2210 C   0  0  0  0  0  0  0  0  0  0  0  0
  -27.2220    6.1680  -23.5050 O   0  0  0  0  0  0  0  0  0  0  0  0
  -23.3870    6.6730  -26.1120 C   0  0  0  0  0  0  0  0  0  0  0  0
  -26.5380    3.3840  -26.4800 O   0  0  0  0  0  0  0  0  0  0  0  0
  -28.1290    3.7330  -24.7140 C   0  0  0  0  0  0  0  0  0  0  0  0
  -23.9510    5.2770  -26.2940 C   0  0  0  0  0  0  0  0  0  0  0  0
  -25.8130    3.3100  -24.3890 O   0  0  0  0  0  0  0  0  0  0  0  0
  -26.7250    3.4600  -25.2350 C   0  0  0  0  0  0  0  0  0  0  0  0
  -23.8720    2.8400  -25.2910 Ru  0  0  0  0  0  0  0  0  0  0  0  0
  -24.9840    2.9650  -27.2690 Ru  0  0  0  0  0  0  0  0  0  0  0  0
  1  2  4  0  0  0  0
  1  5  4  0  0  0  0
  2  4  1  0  0  0  0
  2 36  1  0  0  0  0
  3 22  1  0  0  0  0
  3 36  1  0  0  0  0
  4  7  4  0  0  0  0
  4 13  4  0  0  0  0
  5 14  1  0  0  0  0
  5 37  1  0  0  0  0
  6 22  1  0  0  0  0
  6 37  1  0  0  0  0
  7  9  4  0  0  0  0
  8 33  4  0  0  0  0
  8 37  1  0  0  0  0
  9 11  4  0  0  0  0
 10 33  4  0  0  0  0
 10 36  1  0  0  0  0
 11 12  4  0  0  0  0
 12 13  4  0  0  0  0
 14 15  4  0  0  0  0
 14 21  4  0  0  0  0
 15 16  4  0  0  0  0
 16 17  4  0  0  0  0
 17 19  4  0  0  0  0
 18 24  4  0  0  0  0
 19 21  4  0  0  0  0
 20 25  4  0  0  0  0
 22 23  1  0  0  0  0
 24 26  1  0  0  0  0
 24 27  4  0  0  0  0
 25 28  1  0  0  0  0
 25 29  4  0  0  0  0
 26 30  1  0  0  0  0
 28 32  1  0  0  0  0
 30 33  1  0  0  0  0
 31 35  4  0  0  0  0
 31 37  1  0  0  0  0
 32 35  1  0  0  0  0
 34 35  4  0  0  0  0
 34 36  1  0  0  0  0
 36 37  1  0  0  0  0
M  END
$$$$
