complex
  PyMOL3.0          3D                             0

 29 32  0  0  0  0  0  0  0  0999 V2000
    4.4600   43.6500   19.5890 N   0  0  0  0  0  0  0  0  0  0  0  0
    5.3850   43.4640   18.5570 C   0  0  0  0  0  0  0  0  0  0  0  0
    5.3330   44.5010   17.6390 N   0  0  0  0  0  0  0  0  0  0  0  0
    4.3700   45.3460   18.2140 C   0  0  0  0  0  0  0  0  0  0  0  0
    3.8400   44.7950   19.3640 N   0  0  0  0  0  0  0  0  0  0  0  0
    3.8800   46.6070   17.6630 C   0  0  0  0  0  0  0  0  0  0  0  0
    2.8710   47.2760   18.3630 C   0  0  0  0  0  0  0  0  0  0  0  0
    2.3350   48.4360   17.8520 C   0  0  0  0  0  0  0  0  0  0  0  0
    2.7690   48.9290   16.6310 C   0  0  0  0  0  0  0  0  0  0  0  0
    3.7610   48.2720   15.8940 C   0  0  0  0  0  0  0  0  0  0  0  0
    4.3000   47.0780   16.4160 C   0  0  0  0  0  0  0  0  0  0  0  0
    6.1660   42.2000   18.4830 C   0  0  0  0  0  0  0  0  0  0  0  0
    5.9660   41.4370   17.1930 C   0  0  0  0  0  0  0  0  0  0  0  0
    6.2680   40.0690   17.0830 N   0  0  0  0  0  0  0  0  0  0  0  0
    4.1650   42.7610   20.6700 C   0  0  0  0  0  0  0  0  0  0  0  0
    5.5460   35.3420   14.8870 C   0  0  0  0  0  0  0  0  0  0  0  0
    4.0360   34.9620   14.8260 C   0  0  0  0  0  0  0  0  0  0  0  0
    3.9870   35.2990   16.2920 C   0  0  0  0  0  0  0  0  0  0  0  0
    5.3130   35.8560   16.2350 N   0  0  0  0  0  0  0  0  0  0  0  0
    5.8770   36.9660   16.8800 C   0  0  0  0  0  0  0  0  0  0  0  0
    5.2620   37.7980   17.5360 O   0  0  0  0  0  0  0  0  0  0  0  0
    7.2720   37.1900   16.7330 C   0  0  0  0  0  0  0  0  0  0  0  0
    7.9630   38.3910   16.6590 C   0  0  0  0  0  0  0  0  0  0  0  0
    9.2600   38.0680   16.4270 N   0  0  0  0  0  0  0  0  0  0  0  0
    9.4490   36.7520   16.3290 N   0  0  0  0  0  0  0  0  0  0  0  0
    8.2460   36.2120   16.5370 C   0  0  0  0  0  0  0  0  0  0  0  0
   10.2920   39.0200   16.2330 C   0  0  0  0  0  0  0  0  0  0  0  0
    7.5290   39.7870   16.6520 C   0  0  0  0  0  0  0  0  0  0  0  0
    8.2910   40.6430   16.1890 O   0  0  0  0  0  0  0  0  0  0  0  0
  1  2  4  0  0  0  0
  1  5  4  0  0  0  0
  1 15  1  0  0  0  0
  2  3  4  0  0  0  0
  2 12  1  0  0  0  0
  3  4  4  0  0  0  0
  4  5  4  0  0  0  0
  4  6  1  0  0  0  0
  6  7  4  0  0  0  0
  6 11  4  0  0  0  0
  7  8  4  0  0  0  0
  8  9  4  0  0  0  0
  9 10  4  0  0  0  0
 10 11  4  0  0  0  0
 12 13  1  0  0  0  0
 13 14  1  0  0  0  0
 14 28  1  0  0  0  0
 16 17  1  0  0  0  0
 16 19  1  0  0  0  0
 17 18  1  0  0  0  0
 18 19  1  0  0  0  0
 19 20  1  0  0  0  0
 20 21  2  0  0  0  0
 20 22  1  0  0  0  0
 22 23  4  0  0  0  0
 22 26  4  0  0  0  0
 23 24  4  0  0  0  0
 23 28  1  0  0  0  0
 24 25  4  0  0  0  0
 24 27  1  0  0  0  0
 25 26  4  0  0  0  0
 28 29  2  0  0  0  0
M  END
$$$$
