complex
  PyMOL3.0          3D                             0

  3  2  0  0  0  0  0  0  0  0999 V2000
    2.5690   12.5660   74.2860 C   0  0  0  0  0  0  0  0  0  0  0  0
    2.7680   13.7740   74.3990 O   0  0  0  0  0  0  0  0  0  0  0  0
    3.3580   11.7000   74.6640 O   0  0  0  0  0  0  0  0  0  0  0  0
  1  2  1  0  0  0  0
  1  3  1  0  0  0  0
M  END
$$$$
