complex
  PyMOL3.0          3D                             0

 11 11  0  0  0  0  0  0  0  0999 V2000
  -62.1100  -27.0230  -82.3800 C   0  0  0  0  0  0  0  0  0  0  0  0
  -62.1150  -27.7190  -83.7600 C   0  0  0  0  0  0  0  0  0  0  0  0
  -60.8320  -27.9660  -84.3400 O   0  0  0  0  0  0  0  0  0  0  0  0
  -62.9760  -26.8740  -84.7160 C   0  0  0  0  0  0  0  0  0  0  0  0
  -62.7670  -27.4370  -86.0430 O   0  0  0  0  0  0  0  0  0  0  0  0
  -64.4150  -26.8810  -84.0650 C   0  0  0  0  0  0  0  0  0  0  0  0
  -65.4280  -26.1470  -84.7500 O   0  0  0  0  0  0  0  0  0  0  0  0
  -64.4470  -26.3730  -82.5990 C   0  0  0  0  0  0  0  0  0  0  0  0
  -63.4310  -27.0000  -81.7720 O   0  0  0  0  0  0  0  0  0  0  0  0
  -65.8400  -26.5750  -81.9940 C   0  0  0  0  0  0  0  0  0  0  0  0
  -66.0650  -27.9560  -81.7130 O   0  0  0  0  0  0  0  0  0  0  0  0
  1  2  1  0  0  0  0
  1  9  1  0  0  0  0
  2  3  1  0  0  0  0
  2  4  1  0  0  0  0
  4  5  1  0  0  0  0
  4  6  1  0  0  0  0
  6  7  1  0  0  0  0
  6  8  1  0  0  0  0
  8  9  1  0  0  0  0
  8 10  1  0  0  0  0
 10 11  1  0  0  0  0
M  END
$$$$
