complex
  PyMOL3.0          3D                             0

 38 40  0  0  0  0  0  0  0  0999 V2000
  -62.7370  -14.9660   -0.1460 P   0  0  0  0  0  0  0  0  0  0  0  0
  -61.7700  -17.3660    1.1580 P   0  0  0  0  0  0  0  0  0  0  0  0
  -62.2080  -15.1380   -2.7220 C   0  0  0  0  0  0  0  0  0  0  0  0
  -63.1240  -14.8700   -1.7020 O   0  0  0  0  0  0  0  0  0  0  0  0
  -62.9940  -15.1460   -4.0110 C   0  0  0  0  0  0  0  0  0  0  0  0
  -63.4750  -13.8180   -4.4020 O   0  0  0  0  0  0  0  0  0  0  0  0
  -62.2270  -15.6660   -5.2410 C   0  0  0  0  0  0  0  0  0  0  0  0
  -62.2740  -17.0880   -5.2840 O   0  0  0  0  0  0  0  0  0  0  0  0
  -62.9890  -15.0220   -6.4080 C   0  0  0  0  0  0  0  0  0  0  0  0
  -64.0210  -15.8990   -6.9220 O   0  0  0  0  0  0  0  0  0  0  0  0
  -63.7760  -13.8350   -5.8220 C   0  0  0  0  0  0  0  0  0  0  0  0
  -60.0390  -10.6330   -7.5810 N   0  0  0  0  0  0  0  0  0  0  0  0
  -61.5660  -14.0770    0.1330 O   0  5  0  0  0  0  0  0  0  0  0  0
  -62.2470  -18.7270    0.6700 O   0  0  0  0  0  0  0  0  0  0  0  0
  -59.9110  -11.8790   -7.0430 C   0  0  0  0  0  0  0  0  0  0  0  0
  -64.0140  -14.8040    0.6100 O   0  0  0  0  0  0  0  0  0  0  0  0
  -62.3560  -16.8370    2.4700 O   0  5  0  0  0  0  0  0  0  0  0  0
  -60.9880  -12.6190   -6.6350 N   0  0  0  0  0  0  0  0  0  0  0  0
  -62.2610  -16.5210   -0.1460 O   0  0  0  0  0  0  0  0  0  0  0  0
  -60.2640  -17.2000    1.1840 O   0  0  0  0  0  0  0  0  0  0  0  0
  -62.2430  -12.1110   -6.7330 C   0  0  0  0  0  0  0  0  0  0  0  0
  -62.4460  -10.7520   -7.2900 C   0  0  0  0  0  0  0  0  0  0  0  0
  -61.2350  -10.0220   -7.7340 C   0  0  0  0  0  0  0  0  0  0  0  0
  -61.3620   -8.7910   -8.2760 N   0  0  0  0  0  0  0  0  0  0  0  0
  -63.7720  -10.5180   -7.2970 N   0  0  0  0  0  0  0  0  0  0  0  0
  -64.3610  -11.5920   -6.7500 C   0  0  0  0  0  0  0  0  0  0  0  0
  -63.4520  -12.5350   -6.4160 N   0  0  0  0  0  0  0  0  0  0  0  0
  -62.2710   -8.3680   -8.3750 H   0  0  0  0  0  0  0  0  0  0  0  0
  -60.5370   -8.2880   -8.5760 H   0  0  0  0  0  0  0  0  0  0  0  0
  -63.7700  -16.2110   -7.8020 H   0  0  0  0  0  0  0  0  0  0  0  0
  -58.9190  -12.3000   -6.9330 H   0  0  0  0  0  0  0  0  0  0  0  0
  -65.4290  -11.6910   -6.5970 H   0  0  0  0  0  0  0  0  0  0  0  0
  -64.8400  -13.9940   -6.0470 H   0  0  0  0  0  0  0  0  0  0  0  0
  -62.2660  -14.7700   -7.1960 H   0  0  0  0  0  0  0  0  0  0  0  0
  -61.1570  -15.4190   -5.2490 H   0  0  0  0  0  0  0  0  0  0  0  0
  -63.8200  -15.8250   -3.7590 H   0  0  0  0  0  0  0  0  0  0  0  0
  -61.4290  -14.3730   -2.7510 H   0  0  0  0  0  0  0  0  0  0  0  0
  -61.7240  -16.1040   -2.5610 H   0  0  0  0  0  0  0  0  0  0  0  0
  1  4  1  0  0  0  0
  1 13  1  0  0  0  0
  1 16  2  0  0  0  0
  1 19  1  0  0  0  0
  2 14  1  0  0  0  0
  2 17  1  0  0  0  0
  2 19  1  0  0  0  0
  2 20  2  0  0  0  0
  3  4  1  0  0  0  0
  3  5  1  0  0  0  0
  3 37  1  0  0  0  0
  3 38  1  0  0  0  0
  5  6  1  0  0  0  0
  5  7  1  0  0  0  0
  5 36  1  0  0  0  0
  6 11  1  0  0  0  0
  7  8  1  0  0  0  0
  7  9  1  0  0  0  0
  7 35  1  0  0  0  0
  9 10  1  0  0  0  0
  9 11  1  0  0  0  0
  9 34  1  0  0  0  0
 10 30  1  0  0  0  0
 11 27  1  0  0  0  0
 11 33  1  0  0  0  0
 12 15  4  0  0  0  0
 12 23  4  0  0  0  0
 15 18  4  0  0  0  0
 15 31  1  0  0  0  0
 18 21  4  0  0  0  0
 21 22  4  0  0  0  0
 21 27  4  0  0  0  0
 22 23  4  0  0  0  0
 22 25  4  0  0  0  0
 23 24  1  0  0  0  0
 24 28  1  0  0  0  0
 24 29  1  0  0  0  0
 25 26  4  0  0  0  0
 26 27  4  0  0  0  0
 26 32  1  0  0  0  0
M  END
$$$$
