complex
  PyMOL3.0          3D                             0

 15 16  0  0  0  0  0  0  0  0999 V2000
  139.4520  168.7460  140.2350 C   0  0  0  0  0  0  0  0  0  0  0  0
  140.2670  168.6710  139.1240 C   0  0  0  0  0  0  0  0  0  0  0  0
  140.6330  169.8190  138.3990 C   0  0  0  0  0  0  0  0  0  0  0  0
  140.1150  171.0890  138.8710 C   0  0  0  0  0  0  0  0  0  0  0  0
  139.2670  171.1410  140.0350 C   0  0  0  0  0  0  0  0  0  0  0  0
  138.9290  169.9620  140.7180 C   0  0  0  0  0  0  0  0  0  0  0  0
  138.7210  172.4870  140.5280 C   0  0  0  0  0  0  0  0  0  0  0  0
  138.2320  172.5770  142.0150 C   0  0  0  0  0  0  0  0  0  0  0  0
  138.3940  171.2930  142.8490 C   0  0  0  0  0  0  0  0  0  0  0  0
  138.0200  170.0590  141.9630 C   0  0  0  0  0  0  0  0  0  0  0  0
  137.8330  172.5310  144.9420 C   0  0  0  0  0  0  0  0  0  0  0  0
  137.6080  171.3410  144.1040 N   0  0  0  0  0  0  0  0  0  0  0  0
  140.4300  172.1990  138.2230 O   0  0  0  0  0  0  0  0  0  0  0  0
  141.4170  169.8050  137.3200 O   0  0  0  0  0  0  0  0  0  0  0  0
  138.1630  168.9250  142.7530 O   0  0  0  0  0  0  0  0  0  0  0  0
  1  2  4  0  0  0  0
  1  6  4  0  0  0  0
  2  3  4  0  0  0  0
  3  4  4  0  0  0  0
  3 14  1  0  0  0  0
  4  5  4  0  0  0  0
  4 13  1  0  0  0  0
  5  6  4  0  0  0  0
  5  7  1  0  0  0  0
  6 10  1  0  0  0  0
  7  8  1  0  0  0  0
  8  9  1  0  0  0  0
  9 10  1  0  0  0  0
  9 12  1  0  0  0  0
 10 15  1  0  0  0  0
 11 12  1  0  0  0  0
M  END
$$$$
