complex
  PyMOL3.0          3D                             0

 32 34  0  0  0  0  0  0  0  0999 V2000
  210.8780  365.8950  301.4890 P   0  0  0  0  0  0  0  0  0  0  0  0
  212.3610  365.0300  299.1140 P   0  0  0  0  0  0  0  0  0  0  0  0
  212.9300  362.2180  298.4600 P   0  0  0  0  0  0  0  0  0  0  0  0
  212.2970  366.1180  303.6880 C   0  0  0  0  0  0  0  0  0  0  0  0
  211.8680  366.7250  302.4420 O   0  0  0  0  0  0  0  0  0  0  0  0
  212.0240  367.0600  304.8360 C   0  0  0  0  0  0  0  0  0  0  0  0
  211.3620  368.2520  304.3370 O   0  0  0  0  0  0  0  0  0  0  0  0
  211.1150  366.5170  305.9480 C   0  0  0  0  0  0  0  0  0  0  0  0
  211.5280  366.9860  307.2260 O   0  0  0  0  0  0  0  0  0  0  0  0
  209.7460  367.0770  305.5570 C   0  0  0  0  0  0  0  0  0  0  0  0
  208.8540  367.1760  306.6440 O   0  0  0  0  0  0  0  0  0  0  0  0
  210.1430  368.4470  305.0170 C   0  0  0  0  0  0  0  0  0  0  0  0
  207.3510  372.5000  303.6740 N   0  0  0  0  0  0  0  0  0  0  0  0
  210.0310  364.9920  302.3230 O   0  5  0  0  0  0  0  0  0  0  0  0
  213.2470  366.2110  298.8950 O   0  5  0  0  0  0  0  0  0  0  0  0
  212.8490  362.3600  296.9610 O   0  0  0  0  0  0  0  0  0  0  0  0
  208.2140  372.3620  304.7350 C   0  0  0  0  0  0  0  0  0  0  0  0
  208.3550  373.4270  305.5350 N   0  0  0  0  0  0  0  0  0  0  0  0
  210.1950  366.8340  300.5500 O   0  0  0  0  0  0  0  0  0  0  0  0
  211.1530  364.8450  298.2590 O   0  0  0  0  0  0  0  0  0  0  0  0
  211.6160  361.8100  299.0790 O   0  5  0  0  0  0  0  0  0  0  0  0
  208.8960  371.2460  304.9910 N   0  0  0  0  0  0  0  0  0  0  0  0
  211.9160  365.0040  300.6520 O   0  0  0  0  0  0  0  0  0  0  0  0
  213.2440  363.6980  299.0210 O   0  0  0  0  0  0  0  0  0  0  0  0
  214.0770  361.3440  298.9010 O   0  0  0  0  0  0  0  0  0  0  0  0
  208.6370  370.2700  304.0870 C   0  0  0  0  0  0  0  0  0  0  0  0
  207.7900  370.3220  303.0000 C   0  0  0  0  0  0  0  0  0  0  0  0
  207.0710  371.5110  302.7320 C   0  0  0  0  0  0  0  0  0  0  0  0
  206.2760  371.7320  301.8070 O   0  0  0  0  0  0  0  0  0  0  0  0
  207.8020  369.1140  302.3150 N   0  0  0  0  0  0  0  0  0  0  0  0
  208.6370  368.3660  302.9930 C   0  0  0  0  0  0  0  0  0  0  0  0
  209.1810  369.0060  304.0770 N   0  0  0  0  0  0  0  0  0  0  0  0
  1  5  1  0  0  0  0
  1 14  1  0  0  0  0
  1 19  2  0  0  0  0
  1 23  1  0  0  0  0
  2 15  1  0  0  0  0
  2 20  2  0  0  0  0
  2 23  1  0  0  0  0
  2 24  1  0  0  0  0
  3 16  1  0  0  0  0
  3 21  1  0  0  0  0
  3 24  1  0  0  0  0
  3 25  2  0  0  0  0
  4  5  1  0  0  0  0
  4  6  1  0  0  0  0
  6  7  1  0  0  0  0
  6  8  1  0  0  0  0
  7 12  1  0  0  0  0
  8  9  1  0  0  0  0
  8 10  1  0  0  0  0
 10 11  1  0  0  0  0
 10 12  1  0  0  0  0
 12 32  1  0  0  0  0
 13 17  4  0  0  0  0
 13 28  4  0  0  0  0
 17 18  1  0  0  0  0
 17 22  4  0  0  0  0
 22 26  4  0  0  0  0
 26 27  4  0  0  0  0
 26 32  4  0  0  0  0
 27 28  4  0  0  0  0
 27 30  4  0  0  0  0
 28 29  2  0  0  0  0
 30 31  4  0  0  0  0
 31 32  4  0  0  0  0
M  END
$$$$
