complex
  PyMOL3.0          3D                             0

  5  4  0  0  0  0  0  0  0  0999 V2000
  -54.6110   10.1660  -37.1550 O   0  0  0  0  0  0  0  0  0  0  0  0
  -55.6520    8.0390  -37.4420 O   0  0  0  0  0  0  0  0  0  0  0  0
  -55.5250    9.0210  -35.2730 O   0  5  0  0  0  0  0  0  0  0  0  0
  -53.5500    8.1970  -36.3260 O   0  0  0  0  0  0  0  0  0  0  0  0
  -54.8340    8.8560  -36.5490 S   0  0  0  0  0  0  0  0  0  0  0  0
  1  5  1  0  0  0  0
  2  5  1  0  0  0  0
  3  5  1  0  0  0  0
  4  5  2  0  0  0  0
M  END
$$$$
