complex
  PyMOL3.0          3D                             0

 14 14  0  0  0  0  0  0  0  0999 V2000
   14.4400  -27.3040    0.5950 C   0  0  0  0  0  0  0  0  0  0  0  0
   13.9590  -26.4520   -0.5800 C   0  0  0  0  0  0  0  0  0  0  0  0
   15.0510  -25.6570   -1.1230 N   0  0  0  0  0  0  0  0  0  0  0  0
   12.8070  -25.5490   -0.1470 C   0  0  0  0  0  0  0  0  0  0  0  0
   12.2920  -24.8650   -1.2840 O   0  0  0  0  0  0  0  0  0  0  0  0
   11.7010  -26.3640    0.5100 C   0  0  0  0  0  0  0  0  0  0  0  0
   10.7060  -25.4930    1.0360 O   0  0  0  0  0  0  0  0  0  0  0  0
   12.2730  -27.2080    1.6440 C   0  0  0  0  0  0  0  0  0  0  0  0
   13.3340  -28.0340    1.1460 O   0  0  0  0  0  0  0  0  0  0  0  0
   11.2530  -28.1390    2.2560 C   0  0  0  0  0  0  0  0  0  0  0  0
   10.0410  -28.1280    1.5160 O   0  0  0  0  0  0  0  0  0  0  0  0
   15.9340  -26.1360   -2.0050 C   0  0  0  0  0  0  0  0  0  0  0  0
   15.8770  -27.2890   -2.4240 O   0  0  0  0  0  0  0  0  0  0  0  0
   16.9930  -25.1800   -2.4520 C   0  0  0  0  0  0  0  0  0  0  0  0
  1  2  1  0  0  0  0
  1  9  1  0  0  0  0
  2  3  1  0  0  0  0
  2  4  1  0  0  0  0
  3 12  1  0  0  0  0
  4  5  1  0  0  0  0
  4  6  1  0  0  0  0
  6  7  1  0  0  0  0
  6  8  1  0  0  0  0
  8  9  1  0  0  0  0
  8 10  1  0  0  0  0
 10 11  1  0  0  0  0
 12 13  2  0  0  0  0
 12 14  1  0  0  0  0
M  END
$$$$
