complex
  PyMOL3.0          3D                             0

  6  5  0  0  0  0  0  0  0  0999 V2000
    4.6250   24.8050  -80.6040 C   0  0  0  0  0  0  0  0  0  0  0  0
    5.0000   25.0630  -81.9240 O   0  0  0  0  0  0  0  0  0  0  0  0
    5.8160   25.2100  -79.7080 C   0  0  0  0  0  0  0  0  0  0  0  0
    6.9100   24.4010  -79.9300 O   0  0  0  0  0  0  0  0  0  0  0  0
    6.1160   26.6900  -80.0800 C   0  0  0  0  0  0  0  0  0  0  0  0
    5.1350   27.4830  -79.4850 O   0  0  0  0  0  0  0  0  0  0  0  0
  1  2  1  0  0  0  0
  1  3  1  0  0  0  0
  3  4  1  0  0  0  0
  3  5  1  0  0  0  0
  5  6  1  0  0  0  0
M  END
$$$$
