complex
  PyMOL3.0          3D                             0

  4  3  0  0  0  0  0  0  0  0999 V2000
  -21.8510   64.2130   47.6440 C   0  0  0  0  0  0  0  0  0  0  0  0
  -20.9120   64.6220   48.6330 O   0  0  0  0  0  0  0  0  0  0  0  0
  -22.2980   62.7990   47.7800 C   0  0  0  0  0  0  0  0  0  0  0  0
  -22.3850   62.3540   49.1270 O   0  0  0  0  0  0  0  0  0  0  0  0
  1  2  1  0  0  0  0
  1  3  1  0  0  0  0
  3  4  1  0  0  0  0
M  END
$$$$
