complex
  PyMOL3.0          3D                             0

 11 11  0  0  0  0  0  0  0  0999 V2000
   59.8510  -12.1160   32.6370 C   0  0  0  0  0  0  0  0  0  0  0  0
   60.4630  -13.4570   32.2470 C   0  0  0  0  0  0  0  0  0  0  0  0
   59.6670  -14.5190   32.7840 O   0  0  0  0  0  0  0  0  0  0  0  0
   61.8910  -13.5800   32.7660 C   0  0  0  0  0  0  0  0  0  0  0  0
   62.5090  -14.7380   32.1940 O   0  0  0  0  0  0  0  0  0  0  0  0
   62.7100  -12.3420   32.4180 C   0  0  0  0  0  0  0  0  0  0  0  0
   63.9630  -12.3920   33.1100 O   0  0  0  0  0  0  0  0  0  0  0  0
   61.9640  -11.0700   32.8030 C   0  0  0  0  0  0  0  0  0  0  0  0
   60.6850  -11.0580   32.1710 O   0  0  0  0  0  0  0  0  0  0  0  0
   62.7440   -9.8280   32.3870 C   0  0  0  0  0  0  0  0  0  0  0  0
   62.9460   -9.8430   30.9690 O   0  0  0  0  0  0  0  0  0  0  0  0
  1  2  1  0  0  0  0
  1  9  1  0  0  0  0
  2  3  1  0  0  0  0
  2  4  1  0  0  0  0
  4  5  1  0  0  0  0
  4  6  1  0  0  0  0
  6  7  1  0  0  0  0
  6  8  1  0  0  0  0
  8  9  1  0  0  0  0
  8 10  1  0  0  0  0
 10 11  1  0  0  0  0
M  END
$$$$
