complex
  PyMOL3.0          3D                             0

  6  5  0  0  0  0  0  0  0  0999 V2000
   34.5030   23.1380   -6.8880 C   0  0  0  0  0  0  0  0  0  0  0  0
   33.8280   24.1460   -6.1360 O   0  0  0  0  0  0  0  0  0  0  0  0
   36.0180   23.2920   -6.7660 C   0  0  0  0  0  0  0  0  0  0  0  0
   36.3910   24.6200   -7.1370 O   0  0  0  0  0  0  0  0  0  0  0  0
   36.6630   22.3170   -7.7390 C   0  0  0  0  0  0  0  0  0  0  0  0
   38.0310   22.0840   -7.3940 O   0  0  0  0  0  0  0  0  0  0  0  0
  1  2  1  0  0  0  0
  1  3  1  0  0  0  0
  3  4  1  0  0  0  0
  3  5  1  0  0  0  0
  5  6  1  0  0  0  0
M  END
$$$$
