complex
  PyMOL3.0          3D                             0

  5  4  0  0  0  0  0  0  0  0999 V2000
   28.7240   29.5480   24.7510 O   0  0  0  0  0  0  0  0  0  0  0  0
   29.3960   31.8300   24.6780 O   0  0  0  0  0  0  0  0  0  0  0  0
   29.4450   30.6680   26.7530 O   0  5  0  0  0  0  0  0  0  0  0  0
   27.3420   31.2220   25.7470 O   0  0  0  0  0  0  0  0  0  0  0  0
   28.7230   30.8110   25.4850 S   0  0  0  0  0  0  0  0  0  0  0  0
  1  5  1  0  0  0  0
  2  5  1  0  0  0  0
  3  5  1  0  0  0  0
  4  5  2  0  0  0  0
M  END
$$$$
