complex
  PyMOL3.0          3D                             0

 28 27  0  0  0  0  0  0  0  0999 V2000
 -101.9650  -48.4840   -2.9200 N   0  0  0  0  0  0  0  0  0  0  0  0
 -100.6290  -48.5640   -2.2540 C   0  0  0  0  0  0  0  0  0  0  0  0
  -99.5670  -48.4310   -3.3610 C   0  0  0  0  0  0  0  0  0  0  0  0
 -100.2900  -49.8830   -1.5320 C   0  0  0  0  0  0  0  0  0  0  0  0
 -100.5140  -47.4470   -1.2160 C   0  0  0  0  0  0  0  0  0  0  0  0
  -99.3000  -47.0070   -3.8290 C   0  0  0  0  0  0  0  0  0  0  0  0
  -99.1800  -46.9810   -5.2700 O   0  0  0  0  0  0  0  0  0  0  0  0
 -101.4390  -50.8630   -1.3090 C   0  0  0  0  0  0  0  0  0  0  0  0
 -101.6610  -51.6270   -2.5030 O   0  0  0  0  0  0  0  0  0  0  0  0
 -101.4810  -47.6180   -0.0430 C   0  0  0  0  0  0  0  0  0  0  0  0
 -102.5370  -46.6410   -0.1300 O   0  0  0  0  0  0  0  0  0  0  0  0
 -102.2980  -47.5110   -2.9460 H   0  0  0  0  0  0  0  0  0  0  0  0
 -102.6820  -49.0890   -2.5070 H   0  0  0  0  0  0  0  0  0  0  0  0
  -98.5500  -46.2940   -5.5290 H   0  0  0  0  0  0  0  0  0  0  0  0
 -102.2190  -52.3900   -2.2980 H   0  0  0  0  0  0  0  0  0  0  0  0
 -103.0940  -46.8360   -0.8960 H   0  0  0  0  0  0  0  0  0  0  0  0
  -99.8880  -49.0230   -4.2210 H   0  0  0  0  0  0  0  0  0  0  0  0
  -98.6300  -48.8550   -2.9930 H   0  0  0  0  0  0  0  0  0  0  0  0
  -99.8670  -49.6330   -0.5560 H   0  0  0  0  0  0  0  0  0  0  0  0
  -99.5180  -50.3950   -2.1110 H   0  0  0  0  0  0  0  0  0  0  0  0
  -99.4920  -47.4240   -0.8320 H   0  0  0  0  0  0  0  0  0  0  0  0
 -100.7110  -46.4900   -1.7020 H   0  0  0  0  0  0  0  0  0  0  0  0
  -98.3800  -46.6340   -3.3750 H   0  0  0  0  0  0  0  0  0  0  0  0
 -100.1170  -46.3550   -3.5140 H   0  0  0  0  0  0  0  0  0  0  0  0
 -102.3460  -50.3150   -1.0470 H   0  0  0  0  0  0  0  0  0  0  0  0
 -101.1990  -51.5320   -0.4810 H   0  0  0  0  0  0  0  0  0  0  0  0
 -101.9060  -48.6240   -0.0590 H   0  0  0  0  0  0  0  0  0  0  0  0
 -100.9430  -47.4970    0.9000 H   0  0  0  0  0  0  0  0  0  0  0  0
  1  2  1  0  0  0  0
  1 12  1  0  0  0  0
  1 13  1  0  0  0  0
  2  3  1  0  0  0  0
  2  4  1  0  0  0  0
  2  5  1  0  0  0  0
  3  6  1  0  0  0  0
  3 17  1  0  0  0  0
  3 18  1  0  0  0  0
  4  8  1  0  0  0  0
  4 19  1  0  0  0  0
  4 20  1  0  0  0  0
  5 10  1  0  0  0  0
  5 21  1  0  0  0  0
  5 22  1  0  0  0  0
  6  7  1  0  0  0  0
  6 23  1  0  0  0  0
  6 24  1  0  0  0  0
  7 14  1  0  0  0  0
  8  9  1  0  0  0  0
  8 25  1  0  0  0  0
  8 26  1  0  0  0  0
  9 15  1  0  0  0  0
 10 11  1  0  0  0  0
 10 27  1  0  0  0  0
 10 28  1  0  0  0  0
 11 16  1  0  0  0  0
M  END
$$$$
