complex
  PyMOL3.0          3D                             0

 31 33  0  0  0  0  0  0  0  0999 V2000
  216.3820  228.1870  211.3180 P   0  0  0  0  0  0  0  0  0  0  0  0
  218.2960  225.9950  211.8040 P   0  0  0  0  0  0  0  0  0  0  0  0
  216.9790  223.8810  213.4550 P   0  0  0  0  0  0  0  0  0  0  0  0
  218.5170  229.3370  210.2870 C   0  0  0  0  0  0  0  0  0  0  0  0
  217.3630  228.4860  210.1170 O   0  0  0  0  0  0  0  0  0  0  0  0
  219.4890  229.0980  209.1590 C   0  0  0  0  0  0  0  0  0  0  0  0
  219.2940  230.0970  208.1370 O   0  0  0  0  0  0  0  0  0  0  0  0
  220.9570  229.2270  209.5370 C   0  0  0  0  0  0  0  0  0  0  0  0
  221.7840  228.5230  208.6180 O   0  0  0  0  0  0  0  0  0  0  0  0
  221.1780  230.7360  209.4380 C   0  0  0  0  0  0  0  0  0  0  0  0
  222.5380  231.0480  209.1600 O   0  0  0  0  0  0  0  0  0  0  0  0
  220.2880  231.1040  208.2460 C   0  0  0  0  0  0  0  0  0  0  0  0
  219.4300  235.7590  206.2130 N   0  0  0  0  0  0  0  0  0  0  0  0
  216.4560  229.2460  212.3450 O   0  5  0  0  0  0  0  0  0  0  0  0
  219.3220  226.5940  212.6750 O   0  5  0  0  0  0  0  0  0  0  0  0
  216.0270  224.8660  214.0410 O   0  0  0  0  0  0  0  0  0  0  0  0
  220.1710  234.7290  205.7980 C   0  0  0  0  0  0  0  0  0  0  0  0
  214.9830  227.9250  210.7620 O   0  0  0  0  0  0  0  0  0  0  0  0
  218.6760  225.8710  210.3320 O   0  0  0  0  0  0  0  0  0  0  0  0
  218.0090  223.3490  214.4420 O   0  5  0  0  0  0  0  0  0  0  0  0
  220.3500  233.5400  206.3780 N   0  0  0  0  0  0  0  0  0  0  0  0
  216.9300  226.8080  211.8710 O   0  0  0  0  0  0  0  0  0  0  0  0
  217.8460  224.5560  212.2980 O   0  0  0  0  0  0  0  0  0  0  0  0
  216.3000  222.6890  212.7850 O   0  0  0  0  0  0  0  0  0  0  0  0
  219.6660  233.4520  207.5220 C   0  0  0  0  0  0  0  0  0  0  0  0
  218.8620  234.4310  208.0830 C   0  0  0  0  0  0  0  0  0  0  0  0
  218.7480  235.6420  207.3750 C   0  0  0  0  0  0  0  0  0  0  0  0
  218.0050  236.6750  207.7830 N   0  0  0  0  0  0  0  0  0  0  0  0
  218.3060  233.9870  209.2730 N   0  0  0  0  0  0  0  0  0  0  0  0
  218.7840  232.7740  209.4040 C   0  0  0  0  0  0  0  0  0  0  0  0
  219.6140  232.3870  208.3860 N   0  0  0  0  0  0  0  0  0  0  0  0
  1  5  1  0  0  0  0
  1 14  1  0  0  0  0
  1 18  2  0  0  0  0
  1 22  1  0  0  0  0
  2 15  1  0  0  0  0
  2 19  2  0  0  0  0
  2 22  1  0  0  0  0
  2 23  1  0  0  0  0
  3 16  1  0  0  0  0
  3 20  1  0  0  0  0
  3 23  1  0  0  0  0
  3 24  2  0  0  0  0
  4  5  1  0  0  0  0
  4  6  1  0  0  0  0
  6  7  1  0  0  0  0
  6  8  1  0  0  0  0
  7 12  1  0  0  0  0
  8  9  1  0  0  0  0
  8 10  1  0  0  0  0
 10 11  1  0  0  0  0
 10 12  1  0  0  0  0
 12 31  1  0  0  0  0
 13 17  4  0  0  0  0
 13 27  4  0  0  0  0
 17 21  4  0  0  0  0
 21 25  4  0  0  0  0
 25 26  4  0  0  0  0
 25 31  4  0  0  0  0
 26 27  4  0  0  0  0
 26 29  4  0  0  0  0
 27 28  1  0  0  0  0
 29 30  4  0  0  0  0
 30 31  4  0  0  0  0
M  END
$$$$
