complex
  PyMOL3.0          3D                             0

 31 35  0  0  0  0  0  0  0  0999 V2000
  -36.9190    3.1080   26.3430 C   0  0  0  0  0  0  0  0  0  0  0  0
  -36.5630    1.9930   27.2120 N   0  0  0  0  0  0  0  0  0  0  0  0
  -36.8620    0.6650   27.2700 C   0  0  0  0  0  0  0  0  0  0  0  0
  -37.7550   -0.1260   26.3140 C   0  0  0  0  0  0  0  0  0  0  0  0
  -39.1670    0.4880   26.2710 C   0  0  0  0  0  0  0  0  0  0  0  0
  -37.9220   -1.5690   26.8240 C   0  0  0  0  0  0  0  0  0  0  0  0
  -37.1730   -0.1250   24.8790 C   0  0  0  0  0  0  0  0  0  0  0  0
  -36.1980    0.1730   28.3620 C   0  0  0  0  0  0  0  0  0  0  0  0
  -35.5030    1.2720   28.9220 C   0  0  0  0  0  0  0  0  0  0  0  0
  -34.7100    1.2430   30.0360 N   0  0  0  0  0  0  0  0  0  0  0  0
  -34.2700    0.3290   30.9220 C   0  0  0  0  0  0  0  0  0  0  0  0
  -33.3140    0.5400   31.9230 C   0  0  0  0  0  0  0  0  0  0  0  0
  -33.0160   -0.5800   32.7050 C   0  0  0  0  0  0  0  0  0  0  0  0
  -32.0700   -0.1980   33.5920 N   0  0  0  0  0  0  0  0  0  0  0  0
  -31.7390    1.1580   33.4020 N   0  0  0  0  0  0  0  0  0  0  0  0
  -32.4580    1.5800   32.4140 C   0  0  0  0  0  0  0  0  0  0  0  0
  -33.5840   -1.7760   32.5800 N   0  0  0  0  0  0  0  0  0  0  0  0
  -34.4860   -1.8590   31.5970 C   0  0  0  0  0  0  0  0  0  0  0  0
  -35.0960   -3.0250   31.3790 N   0  0  0  0  0  0  0  0  0  0  0  0
  -36.2370   -3.1040   30.4980 C   0  0  0  0  0  0  0  0  0  0  0  0
  -36.3790   -4.4540   29.7400 C   0  0  0  0  0  0  0  0  0  0  0  0
  -35.9560   -5.4750   30.6640 O   0  0  0  0  0  0  0  0  0  0  0  0
  -37.9060   -4.5470   29.4900 C   0  0  0  0  0  0  0  0  0  0  0  0
  -38.4710   -3.8720   30.7330 C   0  0  0  0  0  0  0  0  0  0  0  0
  -37.5180   -3.0450   31.2960 C   0  0  0  0  0  0  0  0  0  0  0  0
  -37.7590   -2.3160   32.4470 C   0  0  0  0  0  0  0  0  0  0  0  0
  -39.0100   -2.4130   33.0430 C   0  0  0  0  0  0  0  0  0  0  0  0
  -39.9780   -3.2390   32.4730 C   0  0  0  0  0  0  0  0  0  0  0  0
  -39.7120   -3.9760   31.3210 C   0  0  0  0  0  0  0  0  0  0  0  0
  -34.8350   -0.8620   30.7760 N   0  0  0  0  0  0  0  0  0  0  0  0
  -35.7120    2.3630   28.2570 N   0  0  0  0  0  0  0  0  0  0  0  0
  1  2  1  0  0  0  0
  2  3  4  0  0  0  0
  2 31  4  0  0  0  0
  3  4  1  0  0  0  0
  3  8  4  0  0  0  0
  4  5  1  0  0  0  0
  4  6  1  0  0  0  0
  4  7  1  0  0  0  0
  8  9  4  0  0  0  0
  9 10  1  0  0  0  0
  9 31  4  0  0  0  0
 10 11  1  0  0  0  0
 11 12  4  0  0  0  0
 11 30  4  0  0  0  0
 12 13  4  0  0  0  0
 12 16  4  0  0  0  0
 13 14  4  0  0  0  0
 13 17  4  0  0  0  0
 14 15  4  0  0  0  0
 15 16  4  0  0  0  0
 17 18  4  0  0  0  0
 18 19  1  0  0  0  0
 18 30  4  0  0  0  0
 19 20  1  0  0  0  0
 20 21  1  0  0  0  0
 20 25  1  0  0  0  0
 21 22  1  0  0  0  0
 21 23  1  0  0  0  0
 23 24  1  0  0  0  0
 24 25  4  0  0  0  0
 24 29  4  0  0  0  0
 25 26  4  0  0  0  0
 26 27  4  0  0  0  0
 27 28  4  0  0  0  0
 28 29  4  0  0  0  0
M  END
$$$$
