complex
  PyMOL3.0          3D                             0

 28 30  0  0  0  0  0  0  0  0999 V2000
  324.4860  434.4820  301.2940 P   0  0  0  0  0  0  0  0  0  0  0  0
  322.9780  436.1250  299.5920 P   0  0  0  0  0  0  0  0  0  0  0  0
  325.5730  435.7420  303.3260 C   0  0  0  0  0  0  0  0  0  0  0  0
  325.6900  434.7330  302.3310 O   0  0  0  0  0  0  0  0  0  0  0  0
  325.1940  435.1850  304.6900 C   0  0  0  0  0  0  0  0  0  0  0  0
  325.8300  435.9650  305.6970 O   0  0  0  0  0  0  0  0  0  0  0  0
  323.7140  435.3840  304.9310 C   0  0  0  0  0  0  0  0  0  0  0  0
  323.2390  434.4340  305.8880 O   0  0  0  0  0  0  0  0  0  0  0  0
  323.6190  436.7850  305.4870 C   0  0  0  0  0  0  0  0  0  0  0  0
  322.6500  436.8320  306.5300 O   0  0  0  0  0  0  0  0  0  0  0  0
  325.0050  437.0870  306.0270 C   0  0  0  0  0  0  0  0  0  0  0  0
  329.2750  439.9060  305.0840 N   0  0  0  0  0  0  0  0  0  0  0  0
  325.0310  433.6590  300.1540 O   0  5  0  0  0  0  0  0  0  0  0  0
  323.7040  435.7970  298.3100 O   0  0  0  0  0  0  0  0  0  0  0  0
  329.1240  438.7760  305.8050 C   0  0  0  0  0  0  0  0  0  0  0  0
  330.2030  438.2160  306.3990 N   0  0  0  0  0  0  0  0  0  0  0  0
  323.3130  433.9970  302.1070 O   0  0  0  0  0  0  0  0  0  0  0  0
  321.8750  435.1520  299.9270 O   0  5  0  0  0  0  0  0  0  0  0  0
  327.9340  438.1560  305.9550 N   0  0  0  0  0  0  0  0  0  0  0  0
  324.1060  435.9420  300.7330 O   0  0  0  0  0  0  0  0  0  0  0  0
  322.5580  437.5660  299.7440 O   0  0  0  0  0  0  0  0  0  0  0  0
  326.8220  438.6600  305.3830 C   0  0  0  0  0  0  0  0  0  0  0  0
  326.9170  439.8900  304.5880 C   0  0  0  0  0  0  0  0  0  0  0  0
  328.2530  440.5130  304.4670 C   0  0  0  0  0  0  0  0  0  0  0  0
  328.4240  441.5610  303.8070 O   0  0  0  0  0  0  0  0  0  0  0  0
  325.6770  440.1500  304.1410 N   0  0  0  0  0  0  0  0  0  0  0  0
  324.8590  439.1740  304.6130 C   0  0  0  0  0  0  0  0  0  0  0  0
  325.5460  438.2910  305.3580 N   0  0  0  0  0  0  0  0  0  0  0  0
  1  4  1  0  0  0  0
  1 13  1  0  0  0  0
  1 17  2  0  0  0  0
  1 20  1  0  0  0  0
  2 14  1  0  0  0  0
  2 18  1  0  0  0  0
  2 20  1  0  0  0  0
  2 21  2  0  0  0  0
  3  4  1  0  0  0  0
  3  5  1  0  0  0  0
  5  6  1  0  0  0  0
  5  7  1  0  0  0  0
  6 11  1  0  0  0  0
  7  8  1  0  0  0  0
  7  9  1  0  0  0  0
  9 10  1  0  0  0  0
  9 11  1  0  0  0  0
 11 28  1  0  0  0  0
 12 15  4  0  0  0  0
 12 24  4  0  0  0  0
 15 16  1  0  0  0  0
 15 19  4  0  0  0  0
 19 22  4  0  0  0  0
 22 23  4  0  0  0  0
 22 28  4  0  0  0  0
 23 24  4  0  0  0  0
 23 26  4  0  0  0  0
 24 25  2  0  0  0  0
 26 27  4  0  0  0  0
 27 28  4  0  0  0  0
M  END
$$$$
