complex
  PyMOL3.0          3D                             0

 44 48  0  0  0  0  0  0  0  0999 V2000
  202.2080  351.9440  227.7260 P   0  0  0  0  0  0  0  0  0  0  0  0
  203.3160  351.2190  225.0750 P   0  0  0  0  0  0  0  0  0  0  0  0
  201.6290  357.9330  228.4030 C   0  0  0  0  0  0  0  0  0  0  0  0
  201.0340  351.5850  220.2920 C   0  0  0  0  0  0  0  0  0  0  0  0
  200.5630  362.6850  226.7010 N   0  0  0  0  0  0  0  0  0  0  0  0
  201.5430  350.3870  219.5660 N   0  0  0  0  0  0  0  0  0  0  0  0
  200.7860  351.8800  228.1740 O   0  5  0  0  0  0  0  0  0  0  0  0
  203.4290  349.7410  225.2520 O   0  5  0  0  0  0  0  0  0  0  0  0
  201.7210  362.0600  226.9450 C   0  0  0  0  0  0  0  0  0  0  0  0
  201.2980  357.0910  229.6260 C   0  0  0  0  0  0  0  0  0  0  0  0
  200.1050  351.2150  221.4390 C   0  0  0  0  0  0  0  0  0  0  0  0
  201.5680  350.3740  218.1930 C   0  0  0  0  0  0  0  0  0  0  0  0
  203.1820  350.9870  228.3280 O   0  0  0  0  0  0  0  0  0  0  0  0
  201.3560  357.7980  230.8460 O   0  0  0  0  0  0  0  0  0  0  0  0
  198.8170  350.8150  220.9990 O   0  0  0  0  0  0  0  0  0  0  0  0
  204.5640  352.0330  225.1490 O   0  0  0  0  0  0  0  0  0  0  0  0
  202.3670  356.0040  229.4830 C   0  0  0  0  0  0  0  0  0  0  0  0
  200.1140  352.5060  222.2630 C   0  0  0  0  0  0  0  0  0  0  0  0
  202.0240  349.2550  217.5100 C   0  0  0  0  0  0  0  0  0  0  0  0
  201.9320  360.8220  227.3820 N   0  0  0  0  0  0  0  0  0  0  0  0
  202.2490  351.7940  226.1290 O   0  0  0  0  0  0  0  0  0  0  0  0
  203.5970  356.4800  230.0140 O   0  0  0  0  0  0  0  0  0  0  0  0
  199.2110  353.4580  221.7170 O   0  0  0  0  0  0  0  0  0  0  0  0
  200.7720  360.1770  227.5850 C   0  0  0  0  0  0  0  0  0  0  0  0
  202.4930  355.8440  227.9580 C   0  0  0  0  0  0  0  0  0  0  0  0
  201.5570  352.9920  222.0660 C   0  0  0  0  0  0  0  0  0  0  0  0
  202.4770  348.1590  218.2350 C   0  0  0  0  0  0  0  0  0  0  0  0
  201.7620  356.9650  227.3920 O   0  0  0  0  0  0  0  0  0  0  0  0
  202.1040  352.1600  221.0210 O   0  0  0  0  0  0  0  0  0  0  0  0
  199.5050  360.6870  227.3800 C   0  0  0  0  0  0  0  0  0  0  0  0
  201.9780  354.5500  227.3750 C   0  0  0  0  0  0  0  0  0  0  0  0
  202.4540  352.9140  223.2760 C   0  0  0  0  0  0  0  0  0  0  0  0
  202.4670  348.1960  219.6110 C   0  0  0  0  0  0  0  0  0  0  0  0
  202.7410  353.4440  227.9280 O   0  0  0  0  0  0  0  0  0  0  0  0
  202.5660  351.5330  223.6950 O   0  0  0  0  0  0  0  0  0  0  0  0
  199.4090  362.0110  226.9120 C   0  0  0  0  0  0  0  0  0  0  0  0
  201.9910  349.3150  220.2550 C   0  0  0  0  0  0  0  0  0  0  0  0
  198.2560  362.6280  226.6740 N   0  0  0  0  0  0  0  0  0  0  0  0
  202.0210  349.2790  216.0030 C   0  0  0  0  0  0  0  0  0  0  0  0
  198.5460  359.7360  227.6950 N   0  0  0  0  0  0  0  0  0  0  0  0
  202.3740  348.1700  215.3710 N   0  0  0  0  0  0  0  0  0  0  0  0
  201.6970  350.3080  215.4160 O   0  0  0  0  0  0  0  0  0  0  0  0
  199.2360  358.6930  228.0820 C   0  0  0  0  0  0  0  0  0  0  0  0
  200.5930  358.8890  228.0310 N   0  0  0  0  0  0  0  0  0  0  0  0
  1  7  1  0  0  0  0
  1 13  2  0  0  0  0
  1 21  1  0  0  0  0
  1 34  1  0  0  0  0
  2  8  1  0  0  0  0
  2 16  2  0  0  0  0
  2 21  1  0  0  0  0
  2 35  1  0  0  0  0
  3 10  1  0  0  0  0
  3 28  1  0  0  0  0
  3 44  1  0  0  0  0
  4  6  1  0  0  0  0
  4 11  1  0  0  0  0
  4 29  1  0  0  0  0
  5  9  4  0  0  0  0
  5 36  4  0  0  0  0
  6 12  4  0  0  0  0
  6 37  4  0  0  0  0
  9 20  4  0  0  0  0
 10 14  1  0  0  0  0
 10 17  1  0  0  0  0
 11 15  1  0  0  0  0
 11 18  1  0  0  0  0
 12 19  4  0  0  0  0
 17 22  1  0  0  0  0
 17 25  1  0  0  0  0
 18 23  1  0  0  0  0
 18 26  1  0  0  0  0
 19 27  4  0  0  0  0
 19 39  1  0  0  0  0
 20 24  4  0  0  0  0
 24 30  4  0  0  0  0
 24 44  4  0  0  0  0
 25 28  1  0  0  0  0
 25 31  1  0  0  0  0
 26 29  1  0  0  0  0
 26 32  1  0  0  0  0
 27 33  4  0  0  0  0
 30 36  4  0  0  0  0
 30 40  4  0  0  0  0
 31 34  1  0  0  0  0
 32 35  1  0  0  0  0
 33 37  4  0  0  0  0
 36 38  1  0  0  0  0
 39 41  1  0  0  0  0
 39 42  2  0  0  0  0
 40 43  4  0  0  0  0
 43 44  4  0  0  0  0
M  END
$$$$
