complex
  PyMOL3.0          3D                             0

  5  4  0  0  0  0  0  0  0  0999 V2000
    5.2000  -22.3630   14.9550 O   0  0  0  0  0  0  0  0  0  0  0  0
    3.0600  -22.7890   13.9720 O   0  0  0  0  0  0  0  0  0  0  0  0
    3.4640  -20.7750   15.1910 O   0  5  0  0  0  0  0  0  0  0  0  0
    3.3040  -22.8730   16.3330 O   0  0  0  0  0  0  0  0  0  0  0  0
    3.7570  -22.2030   15.1170 S   0  0  0  0  0  0  0  0  0  0  0  0
  1  5  1  0  0  0  0
  2  5  1  0  0  0  0
  3  5  1  0  0  0  0
  4  5  2  0  0  0  0
M  END
$$$$
