complex
  PyMOL3.0          3D                             0

  5  4  0  0  0  0  0  0  0  0999 V2000
  -56.2240  -19.5250   37.8050 O   0  0  0  0  0  0  0  0  0  0  0  0
  -58.2730  -20.4710   37.1560 O   0  0  0  0  0  0  0  0  0  0  0  0
  -57.3430  -21.0030   39.2470 O   0  5  0  0  0  0  0  0  0  0  0  0
  -58.2130  -18.8560   38.8600 O   0  0  0  0  0  0  0  0  0  0  0  0
  -57.5130  -19.9640   38.2670 S   0  0  0  0  0  0  0  0  0  0  0  0
  1  5  1  0  0  0  0
  2  5  1  0  0  0  0
  3  5  1  0  0  0  0
  4  5  2  0  0  0  0
M  END
$$$$
