complex
  PyMOL3.0          3D                             0

 31 33  0  0  0  0  0  0  0  0999 V2000
  174.4840  235.0810  211.4650 P   0  0  0  0  0  0  0  0  0  0  0  0
  177.3970  235.2550  211.9010 P   0  0  0  0  0  0  0  0  0  0  0  0
  178.1910  232.9290  213.6040 P   0  0  0  0  0  0  0  0  0  0  0  0
  174.8810  237.4470  210.3800 C   0  0  0  0  0  0  0  0  0  0  0  0
  174.8380  236.0120  210.2400 O   0  0  0  0  0  0  0  0  0  0  0  0
  175.5190  238.0460  209.1520 C   0  0  0  0  0  0  0  0  0  0  0  0
  174.4890  238.5210  208.2580 O   0  0  0  0  0  0  0  0  0  0  0  0
  176.4100  239.2560  209.4140 C   0  0  0  0  0  0  0  0  0  0  0  0
  177.4160  239.3750  208.4150 O   0  0  0  0  0  0  0  0  0  0  0  0
  175.4140  240.4110  209.3380 C   0  0  0  0  0  0  0  0  0  0  0  0
  176.0500  241.6330  208.9850 O   0  0  0  0  0  0  0  0  0  0  0  0
  174.4990  239.9380  208.2080 C   0  0  0  0  0  0  0  0  0  0  0  0
  170.6610  242.5610  206.0000 N   0  0  0  0  0  0  0  0  0  0  0  0
  173.6910  235.8120  212.4740 O   0  5  0  0  0  0  0  0  0  0  0  0
  177.5810  236.4850  212.6920 O   0  5  0  0  0  0  0  0  0  0  0  0
  176.8070  232.8060  214.1420 O   0  0  0  0  0  0  0  0  0  0  0  0
  171.9040  242.2900  205.5960 C   0  0  0  0  0  0  0  0  0  0  0  0
  173.8430  233.7970  210.9410 O   0  0  0  0  0  0  0  0  0  0  0  0
  177.7080  235.3840  210.4140 O   0  0  0  0  0  0  0  0  0  0  0  0
  179.2180  233.3790  214.6310 O   0  5  0  0  0  0  0  0  0  0  0  0
  172.8540  241.5930  206.2230 N   0  0  0  0  0  0  0  0  0  0  0  0
  175.9140  234.6940  212.0260 O   0  0  0  0  0  0  0  0  0  0  0  0
  178.2540  234.0410  212.4600 O   0  0  0  0  0  0  0  0  0  0  0  0
  178.7100  231.6580  212.9390 O   0  0  0  0  0  0  0  0  0  0  0  0
  172.4260  241.1530  207.4090 C   0  0  0  0  0  0  0  0  0  0  0  0
  171.1740  241.3560  207.9670 C   0  0  0  0  0  0  0  0  0  0  0  0
  170.2550  242.1030  207.2050 C   0  0  0  0  0  0  0  0  0  0  0  0
  169.0110  242.3820  207.6060 N   0  0  0  0  0  0  0  0  0  0  0  0
  171.0870  240.7500  209.2110 N   0  0  0  0  0  0  0  0  0  0  0  0
  172.2680  240.2060  209.3740 C   0  0  0  0  0  0  0  0  0  0  0  0
  173.1270  240.4090  208.3250 N   0  0  0  0  0  0  0  0  0  0  0  0
  1  5  1  0  0  0  0
  1 14  1  0  0  0  0
  1 18  2  0  0  0  0
  1 22  1  0  0  0  0
  2 15  1  0  0  0  0
  2 19  2  0  0  0  0
  2 22  1  0  0  0  0
  2 23  1  0  0  0  0
  3 16  1  0  0  0  0
  3 20  1  0  0  0  0
  3 23  1  0  0  0  0
  3 24  2  0  0  0  0
  4  5  1  0  0  0  0
  4  6  1  0  0  0  0
  6  7  1  0  0  0  0
  6  8  1  0  0  0  0
  7 12  1  0  0  0  0
  8  9  1  0  0  0  0
  8 10  1  0  0  0  0
 10 11  1  0  0  0  0
 10 12  1  0  0  0  0
 12 31  1  0  0  0  0
 13 17  4  0  0  0  0
 13 27  4  0  0  0  0
 17 21  4  0  0  0  0
 21 25  4  0  0  0  0
 25 26  4  0  0  0  0
 25 31  4  0  0  0  0
 26 27  4  0  0  0  0
 26 29  4  0  0  0  0
 27 28  1  0  0  0  0
 29 30  4  0  0  0  0
 30 31  4  0  0  0  0
M  END
$$$$
