complex
  PyMOL3.0          3D                             0

  9  8  0  0  0  0  0  0  0  0999 V2000
   29.7890    0.2170   10.7600 C   0  0  0  0  0  0  0  0  0  0  0  0
   30.1190   -0.6790   11.5750 O   0  0  0  0  0  0  0  0  0  0  0  0
   29.8160    0.0520    9.5180 O   0  5  0  0  0  0  0  0  0  0  0  0
   29.3790    1.5800   11.3010 C   0  0  0  0  0  0  0  0  0  0  0  0
   30.5420    2.4260   11.7940 C   0  0  0  0  0  0  0  0  0  0  0  0
   31.7040    2.0660   11.4860 O   0  5  0  0  0  0  0  0  0  0  0  0
   30.2970    3.4600   12.4590 O   0  0  0  0  0  0  0  0  0  0  0  0
   28.7520    1.4490   12.0370 H   0  0  0  0  0  0  0  0  0  0  0  0
   28.9100    2.0680   10.5990 H   0  0  0  0  0  0  0  0  0  0  0  0
  1  2  4  0  0  0  0
  1  3  4  0  0  0  0
  1  4  1  0  0  0  0
  4  5  1  0  0  0  0
  4  8  1  0  0  0  0
  4  9  1  0  0  0  0
  5  6  4  0  0  0  0
  5  7  4  0  0  0  0
M  END
$$$$
