complex
  PyMOL3.0          3D                             0

 11 11  0  0  0  0  0  0  0  0999 V2000
  -71.7640  -13.2320  -13.1980 C   0  0  0  0  0  0  0  0  0  0  0  0
  -71.5690  -14.5920  -13.9360 C   0  0  0  0  0  0  0  0  0  0  0  0
  -72.7360  -15.3930  -13.6810 O   0  0  0  0  0  0  0  0  0  0  0  0
  -70.3230  -15.3590  -13.4390 C   0  0  0  0  0  0  0  0  0  0  0  0
  -69.9680  -16.4250  -14.3450 O   0  0  0  0  0  0  0  0  0  0  0  0
  -69.0860  -14.4480  -13.3150 C   0  0  0  0  0  0  0  0  0  0  0  0
  -67.9180  -15.1820  -12.7610 O   0  0  0  0  0  0  0  0  0  0  0  0
  -69.4540  -13.1910  -12.4770 C   0  0  0  0  0  0  0  0  0  0  0  0
  -70.5640  -12.4130  -13.0060 O   0  0  0  0  0  0  0  0  0  0  0  0
  -68.2520  -12.2570  -12.3720 C   0  0  0  0  0  0  0  0  0  0  0  0
  -67.9290  -12.1320  -10.9780 O   0  0  0  0  0  0  0  0  0  0  0  0
  1  2  1  0  0  0  0
  1  9  1  0  0  0  0
  2  3  1  0  0  0  0
  2  4  1  0  0  0  0
  4  5  1  0  0  0  0
  4  6  1  0  0  0  0
  6  7  1  0  0  0  0
  6  8  1  0  0  0  0
  8  9  1  0  0  0  0
  8 10  1  0  0  0  0
 10 11  1  0  0  0  0
M  END
$$$$
