complex
  PyMOL3.0          3D                             0

 24 24  0  0  0  0  0  0  0  0999 V2000
   -9.9290   37.1240 -108.9480 N   0  0  0  0  0  0  0  0  0  0  0  0
   -9.1410   38.0590 -109.7950 C   0  0  0  0  0  0  0  0  0  0  0  0
   -7.7110   38.1730 -109.2600 C   0  0  0  0  0  0  0  0  0  0  0  0
   -6.7990   38.4040 -110.0690 O   0  0  0  0  0  0  0  0  0  0  0  0
   -9.8370   39.4200 -109.8560 C   0  0  0  0  0  0  0  0  0  0  0  0
  -10.9210   39.4980 -110.9220 C   0  0  0  0  0  0  0  0  0  0  0  0
  -11.8010   40.7370 -110.8260 C   0  0  0  0  0  0  0  0  0  0  0  0
  -12.7250   40.8800 -112.0180 C   0  0  0  0  0  0  0  0  0  0  0  0
  -14.0560   41.3190 -111.5970 N   0  0  0  0  0  0  0  0  0  0  0  0
  -14.8310   36.7230 -115.0500 P   0  0  0  0  0  0  0  0  0  0  0  0
  -16.3160   38.6260 -113.7910 C   0  0  0  0  0  0  0  0  0  0  0  0
  -15.0720   40.7610 -112.1250 C   0  0  0  0  0  0  0  0  0  0  0  0
  -16.5480   38.2770 -108.0450 C   0  0  0  0  0  0  0  0  0  0  0  0
  -17.0160   37.4740 -110.2910 N   0  0  0  0  0  0  0  0  0  0  0  0
  -16.4590   38.4130 -109.5300 C   0  0  0  0  0  0  0  0  0  0  0  0
  -15.8130   39.5160 -110.1150 C   0  0  0  0  0  0  0  0  0  0  0  0
  -15.2640   40.4530 -109.3040 O   0  0  0  0  0  0  0  0  0  0  0  0
  -15.7450   39.6180 -111.5140 C   0  0  0  0  0  0  0  0  0  0  0  0
  -16.3600   38.6200 -112.2900 C   0  0  0  0  0  0  0  0  0  0  0  0
  -16.9560   37.5760 -111.6360 C   0  0  0  0  0  0  0  0  0  0  0  0
  -14.5590   35.6130 -114.0710 O   0  0  0  0  0  0  0  0  0  0  0  0
  -16.1280   36.5100 -115.8010 O   0  5  0  0  0  0  0  0  0  0  0  0
  -13.6440   37.0090 -115.9390 O   0  0  0  0  0  0  0  0  0  0  0  0
  -15.0230   38.0910 -114.2200 O   0  0  0  0  0  0  0  0  0  0  0  0
  1  2  1  0  0  0  0
  2  3  1  0  0  0  0
  2  5  1  0  0  0  0
  3  4  2  0  0  0  0
  5  6  1  0  0  0  0
  6  7  1  0  0  0  0
  7  8  1  0  0  0  0
  8  9  1  0  0  0  0
  9 12  2  0  0  0  0
 10 21  1  0  0  0  0
 10 22  1  0  0  0  0
 10 23  2  0  0  0  0
 10 24  1  0  0  0  0
 11 19  1  0  0  0  0
 11 24  1  0  0  0  0
 12 18  1  0  0  0  0
 13 15  1  0  0  0  0
 14 15  4  0  0  0  0
 14 20  4  0  0  0  0
 15 16  4  0  0  0  0
 16 17  1  0  0  0  0
 16 18  4  0  0  0  0
 18 19  4  0  0  0  0
 19 20  4  0  0  0  0
M  END
$$$$
