complex
  PyMOL3.0          3D                             0

 13 12  0  0  0  0  0  0  0  0999 V2000
   66.2460   22.9980  104.6350 C   0  0  0  0  0  0  0  0  0  0  0  0
   67.0210   23.7540  103.7180 O   0  0  0  0  0  0  0  0  0  0  0  0
   65.3620   22.0050  103.9390 C   0  0  0  0  0  0  0  0  0  0  0  0
   66.1640   21.0670  103.2400 O   0  0  0  0  0  0  0  0  0  0  0  0
   65.4230   19.9850  102.6900 C   0  0  0  0  0  0  0  0  0  0  0  0
   67.6420   19.6140  101.8600 O   0  0  0  0  0  0  0  0  0  0  0  0
   66.2890   19.1770  101.7760 C   0  0  0  0  0  0  0  0  0  0  0  0
   70.2530   20.1870  101.0270 O   0  0  0  0  0  0  0  0  0  0  0  0
   68.4550   18.6190  101.2570 C   0  0  0  0  0  0  0  0  0  0  0  0
   71.0640   23.1300  101.7440 O   0  0  0  0  0  0  0  0  0  0  0  0
   69.8930   18.9120  101.5420 C   0  0  0  0  0  0  0  0  0  0  0  0
   71.1930   20.7430  101.9360 C   0  0  0  0  0  0  0  0  0  0  0  0
   71.8020   21.9830  101.3500 C   0  0  0  0  0  0  0  0  0  0  0  0
  1  2  1  0  0  0  0
  1  3  1  0  0  0  0
  3  4  1  0  0  0  0
  4  5  1  0  0  0  0
  5  7  1  0  0  0  0
  6  7  1  0  0  0  0
  6  9  1  0  0  0  0
  8 11  1  0  0  0  0
  8 12  1  0  0  0  0
  9 11  1  0  0  0  0
 10 13  1  0  0  0  0
 12 13  1  0  0  0  0
M  END
$$$$
