complex
  PyMOL3.0          3D                             0

  5  4  0  0  0  0  0  0  0  0999 V2000
   -0.9760   58.6790  -15.0210 O   0  0  0  0  0  0  0  0  0  0  0  0
   -0.5160   56.7360  -16.3270 O   0  0  0  0  0  0  0  0  0  0  0  0
    0.8640   57.2700  -14.4570 O   0  5  0  0  0  0  0  0  0  0  0  0
   -1.3700   56.5090  -14.1110 O   0  0  0  0  0  0  0  0  0  0  0  0
   -0.4990   57.2980  -14.9790 S   0  0  0  0  0  0  0  0  0  0  0  0
  1  5  1  0  0  0  0
  2  5  1  0  0  0  0
  3  5  1  0  0  0  0
  4  5  2  0  0  0  0
M  END
$$$$
