complex
  PyMOL3.0          3D                             0

 14 14  0  0  0  0  0  0  0  0999 V2000
  133.3370  156.3180  261.5030 C   0  0  0  0  0  0  0  0  0  0  0  0
  133.4290  157.8100  261.2320 C   0  0  0  0  0  0  0  0  0  0  0  0
  133.3360  158.5930  262.4530 N   0  0  0  0  0  0  0  0  0  0  0  0
  132.3320  158.2110  260.2570 C   0  0  0  0  0  0  0  0  0  0  0  0
  132.3880  159.6100  260.0070 O   0  0  0  0  0  0  0  0  0  0  0  0
  132.4200  157.4080  258.9610 C   0  0  0  0  0  0  0  0  0  0  0  0
  131.2030  157.6530  258.2610 O   0  0  0  0  0  0  0  0  0  0  0  0
  132.5110  155.8990  259.2530 C   0  0  0  0  0  0  0  0  0  0  0  0
  133.4920  155.6000  260.2660 O   0  0  0  0  0  0  0  0  0  0  0  0
  132.8980  155.0780  258.0430 C   0  0  0  0  0  0  0  0  0  0  0  0
  131.7570  154.6740  257.2990 O   0  0  0  0  0  0  0  0  0  0  0  0
  134.0650  159.6930  262.6700 C   0  0  0  0  0  0  0  0  0  0  0  0
  134.8640  160.1160  261.8420 O   0  0  0  0  0  0  0  0  0  0  0  0
  133.8430  160.3800  263.9840 C   0  0  0  0  0  0  0  0  0  0  0  0
  1  2  1  0  0  0  0
  1  9  1  0  0  0  0
  2  3  1  0  0  0  0
  2  4  1  0  0  0  0
  3 12  1  0  0  0  0
  4  5  1  0  0  0  0
  4  6  1  0  0  0  0
  6  7  1  0  0  0  0
  6  8  1  0  0  0  0
  8  9  1  0  0  0  0
  8 10  1  0  0  0  0
 10 11  1  0  0  0  0
 12 13  2  0  0  0  0
 12 14  1  0  0  0  0
M  END
$$$$
