complex
  PyMOL3.0          3D                             0

 27 29  0  0  0  0  0  0  0  0999 V2000
  142.6560  147.0680  216.0220 P   0  0  0  0  0  0  0  0  0  0  0  0
  139.9300  147.3300  215.9940 P   0  0  0  0  0  0  0  0  0  0  0  0
  144.8950  146.2250  217.0480 C   0  0  0  0  0  0  0  0  0  0  0  0
  143.6570  146.8900  217.2670 O   0  0  0  0  0  0  0  0  0  0  0  0
  145.6750  146.0410  218.3420 C   0  0  0  0  0  0  0  0  0  0  0  0
  145.9220  147.2920  218.9780 O   0  0  0  0  0  0  0  0  0  0  0  0
  144.9350  145.1870  219.3560 C   0  0  0  0  0  0  0  0  0  0  0  0
  145.4680  143.8620  219.3500 O   0  0  0  0  0  0  0  0  0  0  0  0
  145.2030  145.8380  220.6950 C   0  0  0  0  0  0  0  0  0  0  0  0
  145.9390  144.9430  221.5300 O   0  0  0  0  0  0  0  0  0  0  0  0
  146.0490  147.0590  220.3790 C   0  0  0  0  0  0  0  0  0  0  0  0
  147.2260  150.3570  224.2510 N   0  0  0  0  0  0  0  0  0  0  0  0
  143.2020  148.1100  215.0810 O   0  5  0  0  0  0  0  0  0  0  0  0
  140.2700  147.3450  214.5230 O   0  0  0  0  0  0  0  0  0  0  0  0
  147.9220  149.3250  223.7440 C   0  0  0  0  0  0  0  0  0  0  0  0
  142.3130  145.6990  215.4900 O   0  0  0  0  0  0  0  0  0  0  0  0
  139.0170  148.4410  216.4450 O   0  5  0  0  0  0  0  0  0  0  0  0
  147.4840  148.5580  222.7340 N   0  0  0  0  0  0  0  0  0  0  0  0
  141.3310  147.6630  216.6960 O   0  0  0  0  0  0  0  0  0  0  0  0
  139.5920  145.9690  216.5500 O   0  0  0  0  0  0  0  0  0  0  0  0
  146.2840  148.7900  222.1580 C   0  0  0  0  0  0  0  0  0  0  0  0
  145.4620  149.9000  222.6520 C   0  0  0  0  0  0  0  0  0  0  0  0
  146.0130  150.7000  223.7680 C   0  0  0  0  0  0  0  0  0  0  0  0
  145.3240  151.7420  224.2880 N   0  0  0  0  0  0  0  0  0  0  0  0
  144.3400  149.9060  221.9120 N   0  0  0  0  0  0  0  0  0  0  0  0
  144.4340  148.8880  221.0210 C   0  0  0  0  0  0  0  0  0  0  0  0
  145.5950  148.2270  221.1680 N   0  0  0  0  0  0  0  0  0  0  0  0
  1  4  1  0  0  0  0
  1 13  1  0  0  0  0
  1 16  2  0  0  0  0
  1 19  1  0  0  0  0
  2 14  1  0  0  0  0
  2 17  1  0  0  0  0
  2 19  1  0  0  0  0
  2 20  2  0  0  0  0
  3  4  1  0  0  0  0
  3  5  1  0  0  0  0
  5  6  1  0  0  0  0
  5  7  1  0  0  0  0
  6 11  1  0  0  0  0
  7  8  1  0  0  0  0
  7  9  1  0  0  0  0
  9 10  1  0  0  0  0
  9 11  1  0  0  0  0
 11 27  1  0  0  0  0
 12 15  4  0  0  0  0
 12 23  4  0  0  0  0
 15 18  4  0  0  0  0
 18 21  4  0  0  0  0
 21 22  4  0  0  0  0
 21 27  4  0  0  0  0
 22 23  4  0  0  0  0
 22 25  4  0  0  0  0
 23 24  1  0  0  0  0
 25 26  4  0  0  0  0
 26 27  4  0  0  0  0
M  END
$$$$
