complex
  PyMOL3.0          3D                             0

 27 29  0  0  0  0  0  0  0  0999 V2000
   -2.4130  158.8590  181.6390 N   0  0  0  0  0  0  0  0  0  0  0  0
   -2.6330  160.0490  180.8290 C   0  0  0  0  0  0  0  0  0  0  0  0
   -2.9690  161.2430  181.7250 C   0  0  0  0  0  0  0  0  0  0  0  0
   -3.2540  161.0710  182.9110 O   0  0  0  0  0  0  0  0  0  0  0  0
   -3.7400  159.8310  179.8040 C   0  0  0  0  0  0  0  0  0  0  0  0
   -3.5380  160.7850  178.6320 C   0  0  0  0  0  0  0  0  0  0  0  0
   -4.9480  160.9400  177.5110 S   0  0  0  0  0  0  0  0  0  0  0  0
   -5.6830  159.2920  177.7040 C   0  0  0  0  0  0  0  0  0  0  0  0
   -4.0620  160.8020  175.9570 C   0  0  0  0  0  0  0  0  0  0  0  0
   -3.9210  162.0930  175.1660 C   0  0  0  0  0  0  0  0  0  0  0  0
   -3.1200  161.6400  174.1100 O   0  0  0  0  0  0  0  0  0  0  0  0
   -5.2220  162.5540  174.5250 C   0  0  0  0  0  0  0  0  0  0  0  0
   -5.0930  163.8340  173.9490 O   0  0  0  0  0  0  0  0  0  0  0  0
   -5.3900  161.6220  173.3560 C   0  0  0  0  0  0  0  0  0  0  0  0
   -6.0230  162.2800  172.2780 O   0  0  0  0  0  0  0  0  0  0  0  0
   -3.9460  161.3000  173.0070 C   0  0  0  0  0  0  0  0  0  0  0  0
   -2.9580  162.4010  181.2950 O   0  0  0  0  0  0  0  0  0  0  0  0
   -1.5230  157.8660  170.0110 N   0  0  0  0  0  0  0  0  0  0  0  0
   -1.3670  159.2370  170.0290 C   0  0  0  0  0  0  0  0  0  0  0  0
   -2.1030  160.0060  170.9050 N   0  0  0  0  0  0  0  0  0  0  0  0
   -2.9740  159.3810  171.7410 C   0  0  0  0  0  0  0  0  0  0  0  0
   -3.1480  158.0080  171.7330 C   0  0  0  0  0  0  0  0  0  0  0  0
   -2.4140  157.2390  170.8490 C   0  0  0  0  0  0  0  0  0  0  0  0
   -2.5590  155.9120  170.8270 N   0  0  0  0  0  0  0  0  0  0  0  0
   -4.0770  157.6890  172.6680 N   0  0  0  0  0  0  0  0  0  0  0  0
   -4.5020  158.8280  173.2670 C   0  0  0  0  0  0  0  0  0  0  0  0
   -3.8210  159.8730  172.6950 N   0  0  0  0  0  0  0  0  0  0  0  0
  1  2  1  0  0  0  0
  2  3  1  0  0  0  0
  2  5  1  0  0  0  0
  3  4  4  0  0  0  0
  3 17  4  0  0  0  0
  5  6  1  0  0  0  0
  6  7  1  0  0  0  0
  7  8  1  0  0  0  0
  7  9  1  0  0  0  0
  9 10  1  0  0  0  0
 10 11  1  0  0  0  0
 10 12  1  0  0  0  0
 11 16  1  0  0  0  0
 12 13  1  0  0  0  0
 12 14  1  0  0  0  0
 14 15  1  0  0  0  0
 14 16  1  0  0  0  0
 16 27  1  0  0  0  0
 18 19  4  0  0  0  0
 18 23  4  0  0  0  0
 19 20  4  0  0  0  0
 20 21  4  0  0  0  0
 21 22  4  0  0  0  0
 21 27  4  0  0  0  0
 22 23  4  0  0  0  0
 22 25  4  0  0  0  0
 23 24  1  0  0  0  0
 25 26  4  0  0  0  0
 26 27  4  0  0  0  0
M  END
$$$$
