complex
  PyMOL3.0          3D                             0

  4  3  0  0  0  0  0  0  0  0999 V2000
   23.5660   66.2370  -14.2210 C   0  0  0  0  0  0  0  0  0  0  0  0
   24.3280   66.5070  -13.0660 O   0  0  0  0  0  0  0  0  0  0  0  0
   23.2550   67.4770  -14.9640 C   0  0  0  0  0  0  0  0  0  0  0  0
   22.4930   67.2670  -16.1320 O   0  0  0  0  0  0  0  0  0  0  0  0
  1  2  1  0  0  0  0
  1  3  1  0  0  0  0
  3  4  1  0  0  0  0
M  END
$$$$
