complex
  PyMOL3.0          3D                             0

 25 26  0  0  0  0  0  0  0  0999 V2000
  144.2540  135.8280  130.7810 N   0  0  0  0  0  0  0  0  0  0  0  0
  144.0820  134.3990  130.4360 C   0  0  0  0  0  0  0  0  0  0  0  0
  142.6760  134.1020  129.8060 C   0  0  0  0  0  0  0  0  0  0  0  0
  142.3200  132.5920  129.6940 C   0  0  0  0  0  0  0  0  0  0  0  0
  140.7690  132.2670  129.5480 C   0  0  0  0  0  0  0  0  0  0  0  0
  140.1820  131.0880  129.1930 N   0  0  0  0  0  0  0  0  0  0  0  0
  138.7490  131.3210  129.2070 C   0  0  0  0  0  0  0  0  0  0  0  0
  137.5810  130.2650  128.8650 C   0  0  0  0  0  0  0  0  0  0  0  0
  136.1880  130.5170  129.1550 C   0  0  0  0  0  0  0  0  0  0  0  0
  135.1210  129.5810  128.8550 C   0  0  0  0  0  0  0  0  0  0  0  0
  135.3430  128.2990  128.2280 C   0  0  0  0  0  0  0  0  0  0  0  0
  134.1630  127.2800  127.9060 C   0  0  0  0  0  0  0  0  0  0  0  0
  133.2840  127.5930  126.6310 C   0  0  0  0  0  0  0  0  0  0  0  0
  131.7330  127.8450  126.8540 C   0  0  0  0  0  0  0  0  0  0  0  0
  131.3990  128.8930  127.9780 C   0  0  0  0  0  0  0  0  0  0  0  0
  130.0600  129.6760  127.7480 C   0  0  0  0  0  0  0  0  0  0  0  0
  129.8450  130.8690  128.7350 C   0  0  0  0  0  0  0  0  0  0  0  0
  128.6760  131.8280  128.3390 C   0  0  0  0  0  0  0  0  0  0  0  0
  127.3020  131.4540  128.9740 C   0  0  0  0  0  0  0  0  0  0  0  0
  126.2170  132.5540  128.8040 C   0  0  0  0  0  0  0  0  0  0  0  0
  124.8970  132.2090  129.5250 C   0  0  0  0  0  0  0  0  0  0  0  0
  136.7400  128.0390  127.9340 C   0  0  0  0  0  0  0  0  0  0  0  0
  137.8070  128.9770  128.2360 C   0  0  0  0  0  0  0  0  0  0  0  0
  138.5620  132.6280  129.5680 N   0  0  0  0  0  0  0  0  0  0  0  0
  139.8020  133.2220  129.7800 O   0  0  0  0  0  0  0  0  0  0  0  0
  1  2  1  0  0  0  0
  2  3  1  0  0  0  0
  3  4  1  0  0  0  0
  4  5  1  0  0  0  0
  5  6  4  0  0  0  0
  5 25  4  0  0  0  0
  6  7  4  0  0  0  0
  7  8  1  0  0  0  0
  7 24  4  0  0  0  0
  8  9  4  0  0  0  0
  8 23  4  0  0  0  0
  9 10  4  0  0  0  0
 10 11  4  0  0  0  0
 11 12  1  0  0  0  0
 11 22  4  0  0  0  0
 12 13  1  0  0  0  0
 13 14  1  0  0  0  0
 14 15  1  0  0  0  0
 15 16  1  0  0  0  0
 16 17  1  0  0  0  0
 17 18  1  0  0  0  0
 18 19  1  0  0  0  0
 19 20  1  0  0  0  0
 20 21  1  0  0  0  0
 22 23  4  0  0  0  0
 24 25  4  0  0  0  0
M  END
$$$$
