complex
  PyMOL3.0          3D                             0

 14 14  0  0  0  0  0  0  0  0999 V2000
   16.8970  -17.1170   19.3360 C   0  0  0  0  0  0  0  0  0  0  0  0
   17.6620  -16.3140   20.3980 C   0  0  0  0  0  0  0  0  0  0  0  0
   19.0000  -15.9720   19.9510 N   0  0  0  0  0  0  0  0  0  0  0  0
   17.7230  -17.0950   21.7080 C   0  0  0  0  0  0  0  0  0  0  0  0
   18.3550  -16.3060   22.7090 O   0  0  0  0  0  0  0  0  0  0  0  0
   16.3230  -17.4800   22.1620 C   0  0  0  0  0  0  0  0  0  0  0  0
   16.4000  -18.3110   23.3160 O   0  0  0  0  0  0  0  0  0  0  0  0
   15.5920  -18.2320   21.0540 C   0  0  0  0  0  0  0  0  0  0  0  0
   15.5980  -17.4640   19.8390 O   0  0  0  0  0  0  0  0  0  0  0  0
   14.1400  -18.4830   21.3890 C   0  0  0  0  0  0  0  0  0  0  0  0
   13.2960  -18.0940   20.3130 O   0  0  0  0  0  0  0  0  0  0  0  0
   19.2760  -14.8660   19.2530 C   0  0  0  0  0  0  0  0  0  0  0  0
   18.4030  -14.0660   18.9330 O   0  0  0  0  0  0  0  0  0  0  0  0
   20.7130  -14.6680   18.8810 C   0  0  0  0  0  0  0  0  0  0  0  0
  1  2  1  0  0  0  0
  1  9  1  0  0  0  0
  2  3  1  0  0  0  0
  2  4  1  0  0  0  0
  3 12  1  0  0  0  0
  4  5  1  0  0  0  0
  4  6  1  0  0  0  0
  6  7  1  0  0  0  0
  6  8  1  0  0  0  0
  8  9  1  0  0  0  0
  8 10  1  0  0  0  0
 10 11  1  0  0  0  0
 12 13  2  0  0  0  0
 12 14  1  0  0  0  0
M  END
$$$$
