complex
  PyMOL3.0          3D                             0

 11 11  0  0  0  0  0  0  0  0999 V2000
  233.7100  257.2560  265.1170 C   0  0  0  0  0  0  0  0  0  0  0  0
  234.1690  255.9920  264.3180 C   0  0  0  0  0  0  0  0  0  0  0  0
  235.5910  255.9330  264.1990 O   0  0  0  0  0  0  0  0  0  0  0  0
  233.7510  254.6950  265.0490 C   0  0  0  0  0  0  0  0  0  0  0  0
  234.3160  253.5420  264.4330 O   0  0  0  0  0  0  0  0  0  0  0  0
  234.1090  254.7210  266.5580 C   0  0  0  0  0  0  0  0  0  0  0  0
  233.5900  253.5770  267.2020 O   0  0  0  0  0  0  0  0  0  0  0  0
  233.5090  255.9800  267.2010 C   0  0  0  0  0  0  0  0  0  0  0  0
  234.0310  257.1490  266.5090 O   0  0  0  0  0  0  0  0  0  0  0  0
  233.8350  256.1180  268.6790 C   0  0  0  0  0  0  0  0  0  0  0  0
  235.2040  255.7810  268.8700 O   0  0  0  0  0  0  0  0  0  0  0  0
  1  2  1  0  0  0  0
  1  9  1  0  0  0  0
  2  3  1  0  0  0  0
  2  4  1  0  0  0  0
  4  5  1  0  0  0  0
  4  6  1  0  0  0  0
  6  7  1  0  0  0  0
  6  8  1  0  0  0  0
  8  9  1  0  0  0  0
  8 10  1  0  0  0  0
 10 11  1  0  0  0  0
M  END
$$$$
