complex
  PyMOL3.0          3D                             0

 28 29  0  0  0  0  0  0  0  0999 V2000
   17.5100   31.0040  -27.9000 P   0  0  0  0  0  0  0  0  0  0  0  0
   18.0620   31.1220  -25.0250 P   0  0  0  0  0  0  0  0  0  0  0  0
   16.3260   33.3130  -24.1000 P   0  0  0  0  0  0  0  0  0  0  0  0
   18.4380   30.4550  -28.9780 O   0  5  0  0  0  0  0  0  0  0  0  0
   16.5840   29.9160  -27.4370 O   0  5  0  0  0  0  0  0  0  0  0  0
   18.4260   31.5340  -26.5980 O   0  0  0  0  0  0  0  0  0  0  0  0
   18.0820   29.6660  -24.8550 O   0  5  0  0  0  0  0  0  0  0  0  0
   19.1320   31.5610  -24.0980 O   0  5  0  0  0  0  0  0  0  0  0  0
   16.5680   31.7490  -24.6060 O   0  0  0  0  0  0  0  0  0  0  0  0
   17.1400   34.3480  -25.1160 O   0  5  0  0  0  0  0  0  0  0  0  0
   16.7260   33.4910  -22.7230 O   0  5  0  0  0  0  0  0  0  0  0  0
   14.9140   33.6410  -24.0340 O   0  5  0  0  0  0  0  0  0  0  0  0
   16.6360   32.2540  -28.4690 O   0  0  0  0  0  0  0  0  0  0  0  0
   17.1350   33.5820  -28.3000 C   0  0  0  0  0  0  0  0  0  0  0  0
   18.5160   33.6790  -29.0260 C   0  0  0  0  0  0  0  0  0  0  0  0
   19.3920   34.8200  -28.4150 C   0  0  0  0  0  0  0  0  0  0  0  0
   20.4320   35.0720  -29.5390 C   0  0  0  0  0  0  0  0  0  0  0  0
   21.7180   34.3070  -29.2280 O   0  0  0  0  0  0  0  0  0  0  0  0
   19.9080   34.6100  -30.6270 C   0  0  0  0  0  0  0  0  0  0  0  0
   19.8260   35.5980  -31.6450 N   0  0  0  0  0  0  0  0  0  0  0  0
   19.7510   35.3690  -32.9840 C   0  0  0  0  0  0  0  0  0  0  0  0
   19.7480   34.0080  -33.6750 C   0  0  0  0  0  0  0  0  0  0  0  0
   18.7120   33.5000  -34.0610 O   0  0  0  0  0  0  0  0  0  0  0  0
   19.6820   36.5990  -33.6230 C   0  0  0  0  0  0  0  0  0  0  0  0
   19.7140   37.5870  -32.6560 C   0  0  0  0  0  0  0  0  0  0  0  0
   19.8000   36.9830  -31.4450 C   0  0  0  0  0  0  0  0  0  0  0  0
   18.3940   34.0390  -30.2380 O   0  0  0  0  0  0  0  0  0  0  0  0
   19.9590   34.3890  -27.3090 O   0  0  0  0  0  0  0  0  0  0  0  0
  1  4  1  0  0  0  0
  1  5  2  0  0  0  0
  1  6  1  0  0  0  0
  1 13  1  0  0  0  0
  2  6  1  0  0  0  0
  2  7  1  0  0  0  0
  2  8  2  0  0  0  0
  2  9  1  0  0  0  0
  3  9  1  0  0  0  0
  3 10  1  0  0  0  0
  3 11  1  0  0  0  0
  3 12  2  0  0  0  0
 13 14  1  0  0  0  0
 14 15  1  0  0  0  0
 15 16  1  0  0  0  0
 15 27  1  0  0  0  0
 16 17  1  0  0  0  0
 16 28  1  0  0  0  0
 17 18  1  0  0  0  0
 17 19  1  0  0  0  0
 19 20  1  0  0  0  0
 19 27  1  0  0  0  0
 20 21  4  0  0  0  0
 20 26  4  0  0  0  0
 21 22  1  0  0  0  0
 21 24  4  0  0  0  0
 22 23  1  0  0  0  0
 24 25  4  0  0  0  0
 25 26  4  0  0  0  0
M  END
$$$$
