complex
  PyMOL3.0          3D                             0

  6  5  0  0  0  0  0  0  0  0999 V2000
  -44.2330  -16.2160   38.6090 C   0  0  0  0  0  0  0  0  0  0  0  0
  -45.2020  -16.2720   37.6220 O   0  0  0  0  0  0  0  0  0  0  0  0
  -43.5330  -14.8110   38.5930 C   0  0  0  0  0  0  0  0  0  0  0  0
  -44.2410  -13.7610   39.2090 O   0  0  0  0  0  0  0  0  0  0  0  0
  -42.2180  -15.0750   39.2260 C   0  0  0  0  0  0  0  0  0  0  0  0
  -41.3110  -14.2960   38.5760 O   0  0  0  0  0  0  0  0  0  0  0  0
  1  2  1  0  0  0  0
  1  3  1  0  0  0  0
  3  4  1  0  0  0  0
  3  5  1  0  0  0  0
  5  6  1  0  0  0  0
M  END
$$$$
