complex
  PyMOL3.0          3D                             0

 12 12  0  0  0  0  0  0  0  0999 V2000
  107.5870    7.7910  -18.8460 C   0  0  0  0  0  0  0  0  0  0  0  0
  108.6960    8.1350  -19.6780 O   0  0  0  0  0  0  0  0  0  0  0  0
  106.8040    6.6430  -19.4890 C   0  0  0  0  0  0  0  0  0  0  0  0
  107.6720    5.5270  -19.6890 O   0  0  0  0  0  0  0  0  0  0  0  0
  106.2470    7.1080  -20.8380 C   0  0  0  0  0  0  0  0  0  0  0  0
  105.4520    6.0670  -21.4110 O   0  0  0  0  0  0  0  0  0  0  0  0
  105.3810    8.3530  -20.6200 C   0  0  0  0  0  0  0  0  0  0  0  0
  104.9150    8.8380  -21.8810 O   0  0  0  0  0  0  0  0  0  0  0  0
  106.2180    9.4340  -19.9330 C   0  0  0  0  0  0  0  0  0  0  0  0
  106.7310    8.9270  -18.7000 O   0  0  0  0  0  0  0  0  0  0  0  0
  105.3440   10.6590  -19.6570 C   0  0  0  0  0  0  0  0  0  0  0  0
  106.1510   11.7100  -19.1240 O   0  0  0  0  0  0  0  0  0  0  0  0
  1  2  1  0  0  0  0
  1  3  1  0  0  0  0
  1 10  1  0  0  0  0
  3  4  1  0  0  0  0
  3  5  1  0  0  0  0
  5  6  1  0  0  0  0
  5  7  1  0  0  0  0
  7  8  1  0  0  0  0
  7  9  1  0  0  0  0
  9 10  1  0  0  0  0
  9 11  1  0  0  0  0
 11 12  1  0  0  0  0
M  END
$$$$
