complex
  PyMOL3.0          3D                             0

 12 12  0  0  0  0  0  0  0  0999 V2000
   52.3160  -42.3620   13.1640 C   0  0  0  0  0  0  0  0  0  0  0  0
   52.4060  -43.7840   13.0200 O   0  0  0  0  0  0  0  0  0  0  0  0
   52.8280  -41.6900   11.8960 C   0  0  0  0  0  0  0  0  0  0  0  0
   52.0810  -42.1640   10.7700 O   0  0  0  0  0  0  0  0  0  0  0  0
   54.3090  -41.9830   11.6820 C   0  0  0  0  0  0  0  0  0  0  0  0
   54.8100  -41.1620   10.6220 O   0  0  0  0  0  0  0  0  0  0  0  0
   55.1080  -41.7170   12.9520 C   0  0  0  0  0  0  0  0  0  0  0  0
   56.4410  -42.2140   12.7900 O   0  0  0  0  0  0  0  0  0  0  0  0
   54.4580  -42.3870   14.1570 C   0  0  0  0  0  0  0  0  0  0  0  0
   53.1070  -41.9470   14.2750 O   0  0  0  0  0  0  0  0  0  0  0  0
   55.2140  -42.0580   15.4390 C   0  0  0  0  0  0  0  0  0  0  0  0
   56.4900  -42.7080   15.4190 O   0  0  0  0  0  0  0  0  0  0  0  0
  1  2  1  0  0  0  0
  1  3  1  0  0  0  0
  1 10  1  0  0  0  0
  3  4  1  0  0  0  0
  3  5  1  0  0  0  0
  5  6  1  0  0  0  0
  5  7  1  0  0  0  0
  7  8  1  0  0  0  0
  7  9  1  0  0  0  0
  9 10  1  0  0  0  0
  9 11  1  0  0  0  0
 11 12  1  0  0  0  0
M  END
$$$$
