complex
  PyMOL3.0          3D                             0

 30 32  0  0  0  0  0  0  0  0999 V2000
  142.3560   78.3560  101.4550 P   0  0  0  0  0  0  0  0  0  0  0  0
  144.3390   80.4010  100.6920 P   0  0  0  0  0  0  0  0  0  0  0  0
  146.3650   78.7400   99.2650 P   0  0  0  0  0  0  0  0  0  0  0  0
  140.0370   79.2870  102.3030 C   0  0  0  0  0  0  0  0  0  0  0  0
  141.3090   78.6720  102.5950 O   0  0  0  0  0  0  0  0  0  0  0  0
  139.6870   80.2990  103.3610 C   0  0  0  0  0  0  0  0  0  0  0  0
  139.3410   79.6190  104.5840 O   0  0  0  0  0  0  0  0  0  0  0  0
  140.8000   81.2790  103.7260 C   0  0  0  0  0  0  0  0  0  0  0  0
  140.6570   82.4950  102.9910 O   0  0  0  0  0  0  0  0  0  0  0  0
  140.5610   81.5100  105.2100 C   0  0  0  0  0  0  0  0  0  0  0  0
  140.0930   80.1410  105.6610 C   0  0  0  0  0  0  0  0  0  0  0  0
  141.4190   75.5850  107.6610 N   0  0  0  0  0  0  0  0  0  0  0  0
  141.7220   78.4820  100.1310 O   0  5  0  0  0  0  0  0  0  0  0  0
  143.4800   81.3890  100.0290 O   0  5  0  0  0  0  0  0  0  0  0  0
  146.4360   77.3360   99.7360 O   0  0  0  0  0  0  0  0  0  0  0  0
  140.2430   76.2090  107.5800 C   0  0  0  0  0  0  0  0  0  0  0  0
  142.9710   77.0030  101.7220 O   0  0  0  0  0  0  0  0  0  0  0  0
  145.4810   80.9710  101.5260 O   0  0  0  0  0  0  0  0  0  0  0  0
  146.4500   78.8840   97.7630 O   0  5  0  0  0  0  0  0  0  0  0  0
  139.9630   77.3990  107.0560 N   0  0  0  0  0  0  0  0  0  0  0  0
  143.5010   79.4250  101.6330 O   0  0  0  0  0  0  0  0  0  0  0  0
  144.9680   79.3850   99.6450 O   0  0  0  0  0  0  0  0  0  0  0  0
  147.3970   79.6480   99.9210 O   0  0  0  0  0  0  0  0  0  0  0  0
  141.0580   77.9710  106.5550 C   0  0  0  0  0  0  0  0  0  0  0  0
  142.3370   77.4500  106.5630 C   0  0  0  0  0  0  0  0  0  0  0  0
  142.5070   76.1910  107.1610 C   0  0  0  0  0  0  0  0  0  0  0  0
  143.6770   75.5590  107.2450 N   0  0  0  0  0  0  0  0  0  0  0  0
  143.2250   78.3290  105.9800 N   0  0  0  0  0  0  0  0  0  0  0  0
  142.4730   79.3390  105.6260 C   0  0  0  0  0  0  0  0  0  0  0  0
  141.1580   79.1980  105.9560 N   0  0  0  0  0  0  0  0  0  0  0  0
  1  5  1  0  0  0  0
  1 13  1  0  0  0  0
  1 17  2  0  0  0  0
  1 21  1  0  0  0  0
  2 14  1  0  0  0  0
  2 18  2  0  0  0  0
  2 21  1  0  0  0  0
  2 22  1  0  0  0  0
  3 15  1  0  0  0  0
  3 19  1  0  0  0  0
  3 22  1  0  0  0  0
  3 23  2  0  0  0  0
  4  5  1  0  0  0  0
  4  6  1  0  0  0  0
  6  7  1  0  0  0  0
  6  8  1  0  0  0  0
  7 11  1  0  0  0  0
  8  9  1  0  0  0  0
  8 10  1  0  0  0  0
 10 11  1  0  0  0  0
 11 30  1  0  0  0  0
 12 16  4  0  0  0  0
 12 26  4  0  0  0  0
 16 20  4  0  0  0  0
 20 24  4  0  0  0  0
 24 25  4  0  0  0  0
 24 30  4  0  0  0  0
 25 26  4  0  0  0  0
 25 28  4  0  0  0  0
 26 27  1  0  0  0  0
 28 29  4  0  0  0  0
 29 30  4  0  0  0  0
M  END
$$$$
