complex
  PyMOL3.0          3D                             0

 44 48  0  0  0  0  0  0  0  0999 V2000
  235.5140  302.3810  248.3480 P   0  0  0  0  0  0  0  0  0  0  0  0
  237.3910  303.1140  246.1760 P   0  0  0  0  0  0  0  0  0  0  0  0
  235.1820  296.3900  249.1590 C   0  0  0  0  0  0  0  0  0  0  0  0
  242.6900  302.7620  246.0860 C   0  0  0  0  0  0  0  0  0  0  0  0
  237.1910  291.6430  249.3480 N   0  0  0  0  0  0  0  0  0  0  0  0
  243.1110  303.9610  245.3080 N   0  0  0  0  0  0  0  0  0  0  0  0
  235.7470  302.4430  249.8210 O   0  5  0  0  0  0  0  0  0  0  0  0
  237.1780  304.5910  246.1560 O   0  5  0  0  0  0  0  0  0  0  0  0
  236.4560  292.2680  248.4210 C   0  0  0  0  0  0  0  0  0  0  0  0
  234.2320  297.2280  250.0030 C   0  0  0  0  0  0  0  0  0  0  0  0
  242.0770  303.1280  247.4290 C   0  0  0  0  0  0  0  0  0  0  0  0
  244.3280  303.9790  244.6740 C   0  0  0  0  0  0  0  0  0  0  0  0
  234.5380  303.3370  247.7470 O   0  0  0  0  0  0  0  0  0  0  0  0
  233.1160  296.5180  250.4930 O   0  0  0  0  0  0  0  0  0  0  0  0
  243.0440  303.5290  248.3870 O   0  0  0  0  0  0  0  0  0  0  0  0
  236.7710  302.3000  245.0900 O   0  0  0  0  0  0  0  0  0  0  0  0
  233.8800  298.3160  248.9830 C   0  0  0  0  0  0  0  0  0  0  0  0
  241.3390  301.8340  247.7870 C   0  0  0  0  0  0  0  0  0  0  0  0
  244.7330  305.1000  243.9630 C   0  0  0  0  0  0  0  0  0  0  0  0
  235.9670  293.5040  248.4280 N   0  0  0  0  0  0  0  0  0  0  0  0
  236.9250  302.5350  247.5990 O   0  0  0  0  0  0  0  0  0  0  0  0
  232.8580  297.8390  248.1190 O   0  0  0  0  0  0  0  0  0  0  0  0
  242.2330  300.8840  248.3500 O   0  0  0  0  0  0  0  0  0  0  0  0
  236.3010  294.1480  249.5580 C   0  0  0  0  0  0  0  0  0  0  0  0
  235.1890  298.4800  248.1910 C   0  0  0  0  0  0  0  0  0  0  0  0
  240.8730  301.3490  246.4060 C   0  0  0  0  0  0  0  0  0  0  0  0
  243.8800  306.1940  243.8820 C   0  0  0  0  0  0  0  0  0  0  0  0
  236.0250  297.3610  248.5910 O   0  0  0  0  0  0  0  0  0  0  0  0
  241.5630  302.1850  245.4520 O   0  0  0  0  0  0  0  0  0  0  0  0
  237.0510  293.6390  250.6000 C   0  0  0  0  0  0  0  0  0  0  0  0
  235.9370  299.7760  248.3930 C   0  0  0  0  0  0  0  0  0  0  0  0
  239.3900  301.4240  246.1430 C   0  0  0  0  0  0  0  0  0  0  0  0
  242.6530  306.1520  244.5040 C   0  0  0  0  0  0  0  0  0  0  0  0
  235.1000  300.8800  247.9590 O   0  0  0  0  0  0  0  0  0  0  0  0
  238.9620  302.8040  246.2320 O   0  0  0  0  0  0  0  0  0  0  0  0
  237.5160  292.3160  250.4760 C   0  0  0  0  0  0  0  0  0  0  0  0
  242.2910  305.0320  245.2160 C   0  0  0  0  0  0  0  0  0  0  0  0
  238.2450  291.6990  251.4010 N   0  0  0  0  0  0  0  0  0  0  0  0
  246.0840  305.0800  243.2930 C   0  0  0  0  0  0  0  0  0  0  0  0
  237.1940  294.5880  251.6010 N   0  0  0  0  0  0  0  0  0  0  0  0
  246.4900  306.1910  242.6970 N   0  0  0  0  0  0  0  0  0  0  0  0
  246.7560  304.0530  243.3200 O   0  0  0  0  0  0  0  0  0  0  0  0
  236.5380  295.6300  251.1580 C   0  0  0  0  0  0  0  0  0  0  0  0
  235.9790  295.4350  249.9200 N   0  0  0  0  0  0  0  0  0  0  0  0
  1  7  1  0  0  0  0
  1 13  2  0  0  0  0
  1 21  1  0  0  0  0
  1 34  1  0  0  0  0
  2  8  1  0  0  0  0
  2 16  2  0  0  0  0
  2 21  1  0  0  0  0
  2 35  1  0  0  0  0
  3 10  1  0  0  0  0
  3 28  1  0  0  0  0
  3 44  1  0  0  0  0
  4  6  1  0  0  0  0
  4 11  1  0  0  0  0
  4 29  1  0  0  0  0
  5  9  4  0  0  0  0
  5 36  4  0  0  0  0
  6 12  4  0  0  0  0
  6 37  4  0  0  0  0
  9 20  4  0  0  0  0
 10 14  1  0  0  0  0
 10 17  1  0  0  0  0
 11 15  1  0  0  0  0
 11 18  1  0  0  0  0
 12 19  4  0  0  0  0
 17 22  1  0  0  0  0
 17 25  1  0  0  0  0
 18 23  1  0  0  0  0
 18 26  1  0  0  0  0
 19 27  4  0  0  0  0
 19 39  1  0  0  0  0
 20 24  4  0  0  0  0
 24 30  4  0  0  0  0
 24 44  4  0  0  0  0
 25 28  1  0  0  0  0
 25 31  1  0  0  0  0
 26 29  1  0  0  0  0
 26 32  1  0  0  0  0
 27 33  4  0  0  0  0
 30 36  4  0  0  0  0
 30 40  4  0  0  0  0
 31 34  1  0  0  0  0
 32 35  1  0  0  0  0
 33 37  4  0  0  0  0
 36 38  1  0  0  0  0
 39 41  1  0  0  0  0
 39 42  2  0  0  0  0
 40 43  4  0  0  0  0
 43 44  4  0  0  0  0
M  END
$$$$
