complex
  PyMOL3.0          3D                             0

  9  8  0  0  0  0  0  0  0  0999 V2000
   15.4890  -14.6630   16.0470 C   0  0  0  0  0  0  0  0  0  0  0  0
   14.6800  -14.1360   16.8580 O   0  5  0  0  0  0  0  0  0  0  0  0
   16.6850  -14.9590   16.3230 O   0  0  0  0  0  0  0  0  0  0  0  0
   14.9790  -14.9480   14.6450 C   0  0  0  0  0  0  0  0  0  0  0  0
   13.5210  -14.5650   14.4650 C   0  0  0  0  0  0  0  0  0  0  0  0
   12.9650  -14.8440   13.3820 O   0  0  0  0  0  0  0  0  0  0  0  0
   12.9540  -13.9680   15.4060 O   0  5  0  0  0  0  0  0  0  0  0  0
   15.0860  -15.8980   14.4530 H   0  0  0  0  0  0  0  0  0  0  0  0
   15.5210  -14.4550   14.0010 H   0  0  0  0  0  0  0  0  0  0  0  0
  1  2  4  0  0  0  0
  1  3  4  0  0  0  0
  1  4  1  0  0  0  0
  4  5  1  0  0  0  0
  4  8  1  0  0  0  0
  4  9  1  0  0  0  0
  5  6  4  0  0  0  0
  5  7  4  0  0  0  0
M  END
$$$$
