complex
  PyMOL3.0          3D                             0

  5  4  0  0  0  0  0  0  0  0999 V2000
  -42.2260   39.3410  -38.1110 O   0  0  0  0  0  0  0  0  0  0  0  0
  -39.9340   39.8560  -37.7010 O   0  0  0  0  0  0  0  0  0  0  0  0
  -41.5140   39.9430  -35.9160 O   0  5  0  0  0  0  0  0  0  0  0  0
  -40.8750   37.8400  -36.8410 O   0  0  0  0  0  0  0  0  0  0  0  0
  -41.1370   39.2450  -37.1430 S   0  0  0  0  0  0  0  0  0  0  0  0
  1  5  1  0  0  0  0
  2  5  1  0  0  0  0
  3  5  1  0  0  0  0
  4  5  2  0  0  0  0
M  END
$$$$
