complex
  PyMOL3.0          3D                             0

  9  9  0  0  0  0  0  0  0  0999 V2000
  -25.9550   -8.2850   -4.6160 C   0  0  0  0  0  0  0  0  0  0  0  0
  -25.8780   -9.3330   -6.7500 N   0  0  0  0  0  0  0  0  0  0  0  0
  -25.1810  -10.5970   -4.9170 O   0  0  0  0  0  0  0  0  0  0  0  0
  -25.6130   -9.5560   -5.3810 C   0  0  0  0  0  0  0  0  0  0  0  0
  -26.4560   -7.4940   -8.0620 O   0  0  0  0  0  0  0  0  0  0  0  0
  -26.3720   -8.0240   -6.9700 C   0  0  0  0  0  0  0  0  0  0  0  0
  -26.7610   -7.4470   -5.6230 C   0  0  0  0  0  0  0  0  0  0  0  0
  -25.6810  -10.3120   -7.8160 C   0  0  0  0  0  0  0  0  0  0  0  0
  -26.9140  -11.2020   -7.9680 C   0  0  0  0  0  0  0  0  0  0  0  0
  1  4  4  0  0  0  0
  1  7  4  0  0  0  0
  2  4  4  0  0  0  0
  2  6  4  0  0  0  0
  2  8  1  0  0  0  0
  3  4  2  0  0  0  0
  5  6  2  0  0  0  0
  6  7  4  0  0  0  0
  8  9  1  0  0  0  0
M  END
$$$$
