complex
  PyMOL3.0          3D                             0

 14 14  0  0  0  0  0  0  0  0999 V2000
  184.1060  139.8600  242.4760 C   0  0  0  0  0  0  0  0  0  0  0  0
  183.6570  141.3040  242.2850 C   0  0  0  0  0  0  0  0  0  0  0  0
  182.5590  141.6270  243.1830 N   0  0  0  0  0  0  0  0  0  0  0  0
  183.2400  141.5360  240.8350 C   0  0  0  0  0  0  0  0  0  0  0  0
  182.9600  142.9170  240.6390 O   0  0  0  0  0  0  0  0  0  0  0  0
  184.3090  141.0720  239.8490 C   0  0  0  0  0  0  0  0  0  0  0  0
  183.6760  141.0510  238.5720 O   0  0  0  0  0  0  0  0  0  0  0  0
  184.7950  139.6580  240.1870 C   0  0  0  0  0  0  0  0  0  0  0  0
  185.1720  139.5690  241.5700 O   0  0  0  0  0  0  0  0  0  0  0  0
  186.0060  139.2310  239.3900 C   0  0  0  0  0  0  0  0  0  0  0  0
  186.8900  138.4420  240.1750 O   0  0  0  0  0  0  0  0  0  0  0  0
  182.6250  142.5890  244.1090 C   0  0  0  0  0  0  0  0  0  0  0  0
  183.6320  143.2690  244.2690 O   0  0  0  0  0  0  0  0  0  0  0  0
  181.3950  142.7830  244.9420 C   0  0  0  0  0  0  0  0  0  0  0  0
  1  2  1  0  0  0  0
  1  9  1  0  0  0  0
  2  3  1  0  0  0  0
  2  4  1  0  0  0  0
  3 12  1  0  0  0  0
  4  5  1  0  0  0  0
  4  6  1  0  0  0  0
  6  7  1  0  0  0  0
  6  8  1  0  0  0  0
  8  9  1  0  0  0  0
  8 10  1  0  0  0  0
 10 11  1  0  0  0  0
 12 13  2  0  0  0  0
 12 14  1  0  0  0  0
M  END
$$$$
