complex
  PyMOL3.0          3D                             0

 11 11  0  0  0  0  0  0  0  0999 V2000
   30.5520  -30.3810   35.5390 C   0  0  0  0  0  0  0  0  0  0  0  0
   31.0450  -31.7900   35.2330 C   0  0  0  0  0  0  0  0  0  0  0  0
   32.1530  -31.7220   34.3290 O   0  0  0  0  0  0  0  0  0  0  0  0
   29.9370  -32.6340   34.6160 C   0  0  0  0  0  0  0  0  0  0  0  0
   30.3580  -34.0010   34.5500 O   0  0  0  0  0  0  0  0  0  0  0  0
   28.6560  -32.5360   35.4350 C   0  0  0  0  0  0  0  0  0  0  0  0
   27.5810  -33.1520   34.7150 O   0  0  0  0  0  0  0  0  0  0  0  0
   28.3040  -31.0830   35.7280 C   0  0  0  0  0  0  0  0  0  0  0  0
   29.4030  -30.4490   36.3800 O   0  0  0  0  0  0  0  0  0  0  0  0
   27.0680  -30.9900   36.6160 C   0  0  0  0  0  0  0  0  0  0  0  0
   27.4260  -31.3070   37.9660 O   0  0  0  0  0  0  0  0  0  0  0  0
  1  2  1  0  0  0  0
  1  9  1  0  0  0  0
  2  3  1  0  0  0  0
  2  4  1  0  0  0  0
  4  5  1  0  0  0  0
  4  6  1  0  0  0  0
  6  7  1  0  0  0  0
  6  8  1  0  0  0  0
  8  9  1  0  0  0  0
  8 10  1  0  0  0  0
 10 11  1  0  0  0  0
M  END
$$$$
