complex
  PyMOL3.0          3D                             0

  9  8  0  0  0  0  0  0  0  0999 V2000
  -21.8390  -26.7150  -35.3360 P   0  0  0  0  0  0  0  0  0  0  0  0
  -22.9490  -24.7490  -33.4810 P   0  0  0  0  0  0  0  0  0  0  0  0
  -21.9390  -27.6700  -34.1810 O   0  0  0  0  0  0  0  0  0  0  0  0
  -22.1450  -25.5980  -32.4880 O   0  0  0  0  0  0  0  0  0  0  0  0
  -20.3890  -26.3710  -35.5840 O   0  5  0  0  0  0  0  0  0  0  0  0
  -22.4610  -23.2960  -33.4000 O   0  5  0  0  0  0  0  0  0  0  0  0
  -22.4260  -27.4630  -36.5020 O   0  5  0  0  0  0  0  0  0  0  0  0
  -24.4630  -24.7730  -33.1670 O   0  0  0  0  0  0  0  0  0  0  0  0
  -22.6500  -25.3100  -35.0180 O   0  0  0  0  0  0  0  0  0  0  0  0
  1  3  1  0  0  0  0
  1  5  1  0  0  0  0
  1  7  2  0  0  0  0
  1  9  1  0  0  0  0
  2  4  1  0  0  0  0
  2  6  1  0  0  0  0
  2  8  2  0  0  0  0
  2  9  1  0  0  0  0
M  END
$$$$
