complex
  PyMOL3.0          3D                             0

  4  3  0  0  0  0  0  0  0  0999 V2000
   29.9420   48.5490   -3.1860 C   0  0  0  0  0  0  0  0  0  0  0  0
   29.1660   49.0600   -4.2430 O   0  0  0  0  0  0  0  0  0  0  0  0
   29.6320   49.0950   -1.8660 C   0  0  0  0  0  0  0  0  0  0  0  0
   28.7080   48.3960   -1.0720 O   0  0  0  0  0  0  0  0  0  0  0  0
  1  2  1  0  0  0  0
  1  3  1  0  0  0  0
  3  4  1  0  0  0  0
M  END
$$$$
