complex
  PyMOL3.0          3D                             0

 31 33  0  0  0  0  0  0  0  0999 V2000
  174.4860  141.2840  164.8850 P   0  0  0  0  0  0  0  0  0  0  0  0
  177.3930  141.0980  164.4160 P   0  0  0  0  0  0  0  0  0  0  0  0
  178.1870  143.4130  162.7010 P   0  0  0  0  0  0  0  0  0  0  0  0
  174.9000  138.9180  165.9640 C   0  0  0  0  0  0  0  0  0  0  0  0
  174.8450  140.3520  166.1080 O   0  0  0  0  0  0  0  0  0  0  0  0
  175.5290  138.3200  167.1980 C   0  0  0  0  0  0  0  0  0  0  0  0
  174.4910  137.8400  168.0820 O   0  0  0  0  0  0  0  0  0  0  0  0
  176.4290  137.1160  166.9460 C   0  0  0  0  0  0  0  0  0  0  0  0
  177.4260  137.0040  167.9540 O   0  0  0  0  0  0  0  0  0  0  0  0
  175.4390  135.9550  167.0140 C   0  0  0  0  0  0  0  0  0  0  0  0
  176.0790  134.7380  167.3760 O   0  0  0  0  0  0  0  0  0  0  0  0
  174.5120  136.4240  168.1350 C   0  0  0  0  0  0  0  0  0  0  0  0
  170.6810  133.7700  170.3170 N   0  0  0  0  0  0  0  0  0  0  0  0
  173.6930  140.5530  163.8770 O   0  5  0  0  0  0  0  0  0  0  0  0
  177.5480  139.8730  163.6100 O   0  5  0  0  0  0  0  0  0  0  0  0
  176.8050  143.5260  162.1560 O   0  0  0  0  0  0  0  0  0  0  0  0
  171.9200  134.0490  170.7290 C   0  0  0  0  0  0  0  0  0  0  0  0
  173.8430  142.5670  165.4110 O   0  0  0  0  0  0  0  0  0  0  0  0
  177.7300  140.9530  165.8960 O   0  0  0  0  0  0  0  0  0  0  0  0
  179.2200  142.9590  161.6800 O   0  5  0  0  0  0  0  0  0  0  0  0
  172.8670  134.7540  170.1090 N   0  0  0  0  0  0  0  0  0  0  0  0
  175.9140  141.6750  164.3230 O   0  0  0  0  0  0  0  0  0  0  0  0
  178.2500  142.3070  163.8500 O   0  0  0  0  0  0  0  0  0  0  0  0
  178.6970  144.6900  163.3620 O   0  0  0  0  0  0  0  0  0  0  0  0
  172.4430  135.1920  168.9200 C   0  0  0  0  0  0  0  0  0  0  0  0
  171.1970  134.9800  168.3550 C   0  0  0  0  0  0  0  0  0  0  0  0
  170.2780  134.2270  169.1110 C   0  0  0  0  0  0  0  0  0  0  0  0
  169.0380  133.9390  168.7030 N   0  0  0  0  0  0  0  0  0  0  0  0
  171.1110  135.5880  167.1120 N   0  0  0  0  0  0  0  0  0  0  0  0
  172.2900  136.1400  166.9560 C   0  0  0  0  0  0  0  0  0  0  0  0
  173.1440  135.9420  168.0090 N   0  0  0  0  0  0  0  0  0  0  0  0
  1  5  1  0  0  0  0
  1 14  1  0  0  0  0
  1 18  2  0  0  0  0
  1 22  1  0  0  0  0
  2 15  1  0  0  0  0
  2 19  2  0  0  0  0
  2 22  1  0  0  0  0
  2 23  1  0  0  0  0
  3 16  1  0  0  0  0
  3 20  1  0  0  0  0
  3 23  1  0  0  0  0
  3 24  2  0  0  0  0
  4  5  1  0  0  0  0
  4  6  1  0  0  0  0
  6  7  1  0  0  0  0
  6  8  1  0  0  0  0
  7 12  1  0  0  0  0
  8  9  1  0  0  0  0
  8 10  1  0  0  0  0
 10 11  1  0  0  0  0
 10 12  1  0  0  0  0
 12 31  1  0  0  0  0
 13 17  4  0  0  0  0
 13 27  4  0  0  0  0
 17 21  4  0  0  0  0
 21 25  4  0  0  0  0
 25 26  4  0  0  0  0
 25 31  4  0  0  0  0
 26 27  4  0  0  0  0
 26 29  4  0  0  0  0
 27 28  1  0  0  0  0
 29 30  4  0  0  0  0
 30 31  4  0  0  0  0
M  END
$$$$
