complex
  PyMOL3.0          3D                             0

 44 48  0  0  0  0  0  0  0  0999 V2000
  -29.4580  -47.2440   -9.8390 P   0  0  0  0  0  0  0  0  0  0  0  0
  -30.8200  -44.7100   -9.2100 P   0  0  0  0  0  0  0  0  0  0  0  0
  -28.3080  -52.2690   -9.6960 C   0  0  0  0  0  0  0  0  0  0  0  0
  -35.0430  -43.5780  -12.8470 C   0  0  0  0  0  0  0  0  0  0  0  0
  -26.3890  -56.9810  -10.5600 N   0  0  0  0  0  0  0  0  0  0  0  0
  -36.1400  -42.7120  -12.3970 N   0  0  0  0  0  0  0  0  0  0  0  0
  -28.5800  -47.5070  -11.0160 O   0  5  0  0  0  0  0  0  0  0  0  0
  -30.5280  -43.3980   -9.8560 O   0  5  0  0  0  0  0  0  0  0  0  0
  -26.4370  -55.8830  -11.3200 C   0  0  0  0  0  0  0  0  0  0  0  0
  -29.0080  -52.1330  -11.0400 C   0  0  0  0  0  0  0  0  0  0  0  0
  -33.8080  -42.8050  -13.3120 C   0  0  0  0  0  0  0  0  0  0  0  0
  -35.8890  -41.4430  -11.9250 C   0  0  0  0  0  0  0  0  0  0  0  0
  -28.8220  -47.1730   -8.4920 O   0  0  0  0  0  0  0  0  0  0  0  0
  -28.2410  -52.5610  -12.1380 O   0  0  0  0  0  0  0  0  0  0  0  0
  -33.2900  -43.5630  -14.3890 O   0  0  0  0  0  0  0  0  0  0  0  0
  -30.3660  -44.9130   -7.8030 O   0  0  0  0  0  0  0  0  0  0  0  0
  -29.2170  -50.6160  -11.0410 C   0  0  0  0  0  0  0  0  0  0  0  0
  -32.9400  -42.7790  -12.0460 C   0  0  0  0  0  0  0  0  0  0  0  0
  -36.9420  -40.6400  -11.5070 C   0  0  0  0  0  0  0  0  0  0  0  0
  -26.9560  -54.6930  -11.0420 N   0  0  0  0  0  0  0  0  0  0  0  0
  -30.2240  -45.8720  -10.1350 O   0  0  0  0  0  0  0  0  0  0  0  0
  -28.1050  -49.9290  -11.5980 O   0  0  0  0  0  0  0  0  0  0  0  0
  -31.5470  -42.7420  -12.3310 O   0  0  0  0  0  0  0  0  0  0  0  0
  -27.4770  -54.6660   -9.8060 C   0  0  0  0  0  0  0  0  0  0  0  0
  -29.3260  -50.2640   -9.5470 C   0  0  0  0  0  0  0  0  0  0  0  0
  -33.3210  -44.0790  -11.3210 C   0  0  0  0  0  0  0  0  0  0  0  0
  -38.2350  -41.1220  -11.5740 C   0  0  0  0  0  0  0  0  0  0  0  0
  -29.1500  -51.5250   -8.8530 O   0  0  0  0  0  0  0  0  0  0  0  0
  -34.6590  -44.3990  -11.7530 O   0  0  0  0  0  0  0  0  0  0  0  0
  -27.5000  -55.7130   -8.9080 C   0  0  0  0  0  0  0  0  0  0  0  0
  -30.5840  -49.5590   -9.1060 C   0  0  0  0  0  0  0  0  0  0  0  0
  -33.2940  -44.0180   -9.8160 C   0  0  0  0  0  0  0  0  0  0  0  0
  -38.4590  -42.3930  -12.0570 C   0  0  0  0  0  0  0  0  0  0  0  0
  -30.6820  -48.2870   -9.8090 O   0  0  0  0  0  0  0  0  0  0  0  0
  -32.3900  -45.0330   -9.3110 O   0  0  0  0  0  0  0  0  0  0  0  0
  -26.9250  -56.9300   -9.3190 C   0  0  0  0  0  0  0  0  0  0  0  0
  -37.4210  -43.1840  -12.4650 C   0  0  0  0  0  0  0  0  0  0  0  0
  -26.8790  -58.0200   -8.5580 N   0  0  0  0  0  0  0  0  0  0  0  0
  -36.6920  -39.2600  -10.9890 C   0  0  0  0  0  0  0  0  0  0  0  0
  -28.1220  -55.3250   -7.7310 N   0  0  0  0  0  0  0  0  0  0  0  0
  -37.7450  -38.5040  -10.7120 N   0  0  0  0  0  0  0  0  0  0  0  0
  -35.5270  -38.8590  -10.8370 O   0  0  0  0  0  0  0  0  0  0  0  0
  -28.4570  -54.0760   -7.9350 C   0  0  0  0  0  0  0  0  0  0  0  0
  -28.1170  -53.6210   -9.1820 N   0  0  0  0  0  0  0  0  0  0  0  0
  1  7  1  0  0  0  0
  1 13  2  0  0  0  0
  1 21  1  0  0  0  0
  1 34  1  0  0  0  0
  2  8  1  0  0  0  0
  2 16  2  0  0  0  0
  2 21  1  0  0  0  0
  2 35  1  0  0  0  0
  3 10  1  0  0  0  0
  3 28  1  0  0  0  0
  3 44  1  0  0  0  0
  4  6  1  0  0  0  0
  4 11  1  0  0  0  0
  4 29  1  0  0  0  0
  5  9  4  0  0  0  0
  5 36  4  0  0  0  0
  6 12  4  0  0  0  0
  6 37  4  0  0  0  0
  9 20  4  0  0  0  0
 10 14  1  0  0  0  0
 10 17  1  0  0  0  0
 11 15  1  0  0  0  0
 11 18  1  0  0  0  0
 12 19  4  0  0  0  0
 17 22  1  0  0  0  0
 17 25  1  0  0  0  0
 18 23  1  0  0  0  0
 18 26  1  0  0  0  0
 19 27  4  0  0  0  0
 19 39  1  0  0  0  0
 20 24  4  0  0  0  0
 24 30  4  0  0  0  0
 24 44  4  0  0  0  0
 25 28  1  0  0  0  0
 25 31  1  0  0  0  0
 26 29  1  0  0  0  0
 26 32  1  0  0  0  0
 27 33  4  0  0  0  0
 30 36  4  0  0  0  0
 30 40  4  0  0  0  0
 31 34  1  0  0  0  0
 32 35  1  0  0  0  0
 33 37  4  0  0  0  0
 36 38  1  0  0  0  0
 39 41  1  0  0  0  0
 39 42  2  0  0  0  0
 40 43  4  0  0  0  0
 43 44  4  0  0  0  0
M  END
$$$$
