complex
  PyMOL3.0          3D                             0

  5  4  0  0  0  0  0  0  0  0999 V2000
  -55.1360  -31.3130  -25.2480 Al  0  0  0  0  0  0  0  0  0  0  0  0
  -54.1200  -32.2240  -26.4220 F   0  0  0  0  0  0  0  0  0  0  0  0
  -56.1420  -30.4530  -24.0510 F   0  0  0  0  0  0  0  0  0  0  0  0
  -55.5060  -30.0820  -26.4920 F   0  0  0  0  0  0  0  0  0  0  0  0
  -54.7480  -32.5680  -24.0070 F   0  0  0  0  0  0  0  0  0  0  0  0
  1  2  1  0  0  0  0
  1  3  1  0  0  0  0
  1  4  1  0  0  0  0
  1  5  1  0  0  0  0
M  END
$$$$
