complex
  PyMOL3.0          3D                             0

 14 14  0  0  0  0  0  0  0  0999 V2000
   25.3200  -41.9680   11.0980 C   0  0  0  0  0  0  0  0  0  0  0  0
   25.3310  -43.2910   11.8620 C   0  0  0  0  0  0  0  0  0  0  0  0
   26.6400  -43.5500   12.4410 N   0  0  0  0  0  0  0  0  0  0  0  0
   24.9170  -44.4350   10.9390 C   0  0  0  0  0  0  0  0  0  0  0  0
   24.8300  -45.6440   11.6850 O   0  0  0  0  0  0  0  0  0  0  0  0
   23.5780  -44.1300   10.2810 C   0  0  0  0  0  0  0  0  0  0  0  0
   23.2590  -45.1390    9.3290 O   0  0  0  0  0  0  0  0  0  0  0  0
   23.6290  -42.7740    9.5820 C   0  0  0  0  0  0  0  0  0  0  0  0
   24.0230  -41.7580   10.5160 O   0  0  0  0  0  0  0  0  0  0  0  0
   22.2930  -42.3480    9.0170 C   0  0  0  0  0  0  0  0  0  0  0  0
   21.4180  -41.8920   10.0390 O   0  0  0  0  0  0  0  0  0  0  0  0
   26.8640  -43.6110   13.7580 C   0  0  0  0  0  0  0  0  0  0  0  0
   27.9800  -43.8330   14.2170 O   0  0  0  0  0  0  0  0  0  0  0  0
   25.6710  -43.3930   14.6410 C   0  0  0  0  0  0  0  0  0  0  0  0
  1  2  1  0  0  0  0
  1  9  1  0  0  0  0
  2  3  1  0  0  0  0
  2  4  1  0  0  0  0
  3 12  1  0  0  0  0
  4  5  1  0  0  0  0
  4  6  1  0  0  0  0
  6  7  1  0  0  0  0
  6  8  1  0  0  0  0
  8  9  1  0  0  0  0
  8 10  1  0  0  0  0
 10 11  1  0  0  0  0
 12 13  2  0  0  0  0
 12 14  1  0  0  0  0
M  END
$$$$
