complex
  PyMOL3.0          3D                             0

  6  5  0  0  0  0  0  0  0  0999 V2000
  -24.1410   -3.4550    7.8780 C   0  0  0  0  0  0  0  0  0  0  0  0
  -22.7330   -3.1540    7.8190 O   0  0  0  0  0  0  0  0  0  0  0  0
  -24.7620   -3.3000    6.4010 C   0  0  0  0  0  0  0  0  0  0  0  0
  -24.4340   -4.4650    5.6610 O   0  0  0  0  0  0  0  0  0  0  0  0
  -26.2580   -3.1560    6.5860 C   0  0  0  0  0  0  0  0  0  0  0  0
  -26.7520   -4.3790    6.9700 O   0  0  0  0  0  0  0  0  0  0  0  0
  1  2  1  0  0  0  0
  1  3  1  0  0  0  0
  3  4  1  0  0  0  0
  3  5  1  0  0  0  0
  5  6  1  0  0  0  0
M  END
$$$$
