complex
  PyMOL3.0          3D                             0

 11 11  0  0  0  0  0  0  0  0999 V2000
   61.8180  -54.5640    5.9110 C   0  0  0  0  0  0  0  0  0  0  0  0
   61.4760  -54.6050    7.3960 C   0  0  0  0  0  0  0  0  0  0  0  0
   61.9610  -53.4160    8.0300 O   0  0  0  0  0  0  0  0  0  0  0  0
   62.0940  -55.8260    8.0680 C   0  0  0  0  0  0  0  0  0  0  0  0
   61.5660  -55.9590    9.3920 O   0  0  0  0  0  0  0  0  0  0  0  0
   61.8090  -57.0990    7.2780 C   0  0  0  0  0  0  0  0  0  0  0  0
   62.6210  -58.1610    7.7890 O   0  0  0  0  0  0  0  0  0  0  0  0
   62.1100  -56.9040    5.7960 C   0  0  0  0  0  0  0  0  0  0  0  0
   61.3870  -55.7790    5.3010 O   0  0  0  0  0  0  0  0  0  0  0  0
   61.7300  -58.1430    4.9940 C   0  0  0  0  0  0  0  0  0  0  0  0
   60.3190  -58.3630    5.0940 O   0  0  0  0  0  0  0  0  0  0  0  0
  1  2  1  0  0  0  0
  1  9  1  0  0  0  0
  2  3  1  0  0  0  0
  2  4  1  0  0  0  0
  4  5  1  0  0  0  0
  4  6  1  0  0  0  0
  6  7  1  0  0  0  0
  6  8  1  0  0  0  0
  8  9  1  0  0  0  0
  8 10  1  0  0  0  0
 10 11  1  0  0  0  0
M  END
$$$$
