complex
  PyMOL3.0          3D                             0

 13 12  0  0  0  0  0  0  0  0999 V2000
   89.8470   42.0810   98.9080 C   0  0  0  0  0  0  0  0  0  0  0  0
   90.6520   43.1520   98.4400 O   0  0  0  0  0  0  0  0  0  0  0  0
   90.3540   41.5230  100.2070 C   0  0  0  0  0  0  0  0  0  0  0  0
   90.1500   42.4620  101.2550 O   0  0  0  0  0  0  0  0  0  0  0  0
   89.6040   41.8740  102.4280 C   0  0  0  0  0  0  0  0  0  0  0  0
   89.5900   44.0140  103.5200 O   0  0  0  0  0  0  0  0  0  0  0  0
   89.9940   42.6540  103.6420 C   0  0  0  0  0  0  0  0  0  0  0  0
   90.0590   46.5220  103.1700 O   0  0  0  0  0  0  0  0  0  0  0  0
   90.0440   44.6890  104.6880 C   0  0  0  0  0  0  0  0  0  0  0  0
   90.7640   47.6920  100.7170 O   0  0  0  0  0  0  0  0  0  0  0  0
   89.9100   46.1700  104.5390 C   0  0  0  0  0  0  0  0  0  0  0  0
   90.5660   47.8490  103.1190 C   0  0  0  0  0  0  0  0  0  0  0  0
   90.2660   48.4800  101.7890 C   0  0  0  0  0  0  0  0  0  0  0  0
  1  2  1  0  0  0  0
  1  3  1  0  0  0  0
  3  4  1  0  0  0  0
  4  5  1  0  0  0  0
  5  7  1  0  0  0  0
  6  7  1  0  0  0  0
  6  9  1  0  0  0  0
  8 11  1  0  0  0  0
  8 12  1  0  0  0  0
  9 11  1  0  0  0  0
 10 13  1  0  0  0  0
 12 13  1  0  0  0  0
M  END
$$$$
