complex
  PyMOL3.0          3D                             0

 14 14  0  0  0  0  0  0  0  0999 V2000
  214.0640  179.7570  275.4910 C   0  0  0  0  0  0  0  0  0  0  0  0
  213.0670  180.2060  274.4100 C   0  0  0  0  0  0  0  0  0  0  0  0
  211.8090  179.4870  274.5320 N   0  0  0  0  0  0  0  0  0  0  0  0
  213.6640  180.0050  273.0150 C   0  0  0  0  0  0  0  0  0  0  0  0
  212.7600  180.5130  272.0410 O   0  0  0  0  0  0  0  0  0  0  0  0
  215.0180  180.6970  272.8940 C   0  0  0  0  0  0  0  0  0  0  0  0
  215.5800  180.4450  271.6100 O   0  0  0  0  0  0  0  0  0  0  0  0
  215.9500  180.1790  273.9890 C   0  0  0  0  0  0  0  0  0  0  0  0
  215.3460  180.4000  275.2730 O   0  0  0  0  0  0  0  0  0  0  0  0
  217.2940  180.8700  274.0250 C   0  0  0  0  0  0  0  0  0  0  0  0
  218.0850  180.5300  272.8960 O   0  0  0  0  0  0  0  0  0  0  0  0
  210.6770  180.0620  274.9490 C   0  0  0  0  0  0  0  0  0  0  0  0
  210.6260  181.2480  275.2560 O   0  0  0  0  0  0  0  0  0  0  0  0
  209.4740  179.1710  275.0170 C   0  0  0  0  0  0  0  0  0  0  0  0
  1  2  1  0  0  0  0
  1  9  1  0  0  0  0
  2  3  1  0  0  0  0
  2  4  1  0  0  0  0
  3 12  1  0  0  0  0
  4  5  1  0  0  0  0
  4  6  1  0  0  0  0
  6  7  1  0  0  0  0
  6  8  1  0  0  0  0
  8  9  1  0  0  0  0
  8 10  1  0  0  0  0
 10 11  1  0  0  0  0
 12 13  2  0  0  0  0
 12 14  1  0  0  0  0
M  END
$$$$
