complex
  PyMOL3.0          3D                             0

  4  3  0  0  0  0  0  0  0  0999 V2000
   27.6880   57.0380   14.4880 C   0  0  0  0  0  0  0  0  0  0  0  0
   26.8080   56.4940   15.4720 O   0  0  0  0  0  0  0  0  0  0  0  0
   28.3330   56.0540   13.5500 C   0  0  0  0  0  0  0  0  0  0  0  0
   28.5130   54.7320   14.0310 O   0  0  0  0  0  0  0  0  0  0  0  0
  1  2  1  0  0  0  0
  1  3  1  0  0  0  0
  3  4  1  0  0  0  0
M  END
$$$$
