complex
  PyMOL3.0          3D                             0

 11 11  0  0  0  0  0  0  0  0999 V2000
  230.8080  260.4220  266.6810 C   0  0  0  0  0  0  0  0  0  0  0  0
  231.2110  258.9460  266.4940 C   0  0  0  0  0  0  0  0  0  0  0  0
  230.0620  258.1260  266.4260 O   0  0  0  0  0  0  0  0  0  0  0  0
  231.9320  258.7820  265.1510 C   0  0  0  0  0  0  0  0  0  0  0  0
  232.2890  257.4210  264.9140 O   0  0  0  0  0  0  0  0  0  0  0  0
  231.0850  259.3280  263.9750 C   0  0  0  0  0  0  0  0  0  0  0  0
  231.8330  259.2840  262.7730 O   0  0  0  0  0  0  0  0  0  0  0  0
  230.6500  260.7900  264.2690 C   0  0  0  0  0  0  0  0  0  0  0  0
  230.0010  260.8540  265.5770 O   0  0  0  0  0  0  0  0  0  0  0  0
  229.6880  261.3360  263.2420 C   0  0  0  0  0  0  0  0  0  0  0  0
  229.1130  262.5200  263.7710 O   0  0  0  0  0  0  0  0  0  0  0  0
  1  2  1  0  0  0  0
  1  9  1  0  0  0  0
  2  3  1  0  0  0  0
  2  4  1  0  0  0  0
  4  5  1  0  0  0  0
  4  6  1  0  0  0  0
  6  7  1  0  0  0  0
  6  8  1  0  0  0  0
  8  9  1  0  0  0  0
  8 10  1  0  0  0  0
 10 11  1  0  0  0  0
M  END
$$$$
