complex
  PyMOL3.0          3D                             0

 31 34  0  0  0  0  0  0  0  0999 V2000
  -44.0780   32.9280   71.6780 Cl  0  0  0  0  0  0  0  0  0  0  0  0
  -43.3790   32.4260   74.2450 C   0  0  0  0  0  0  0  0  0  0  0  0
  -44.0630   31.9670   73.1360 C   0  0  0  0  0  0  0  0  0  0  0  0
  -44.7270   30.7270   73.1860 C   0  0  0  0  0  0  0  0  0  0  0  0
  -44.7790   29.9600   74.3690 C   0  0  0  0  0  0  0  0  0  0  0  0
  -45.4010   28.6670   74.4370 N   0  0  0  0  0  0  0  0  0  0  0  0
  -45.4550   27.5620   73.5310 C   0  0  0  0  0  0  0  0  0  0  0  0
  -44.5450   27.5000   72.5400 N   0  0  0  0  0  0  0  0  0  0  0  0
  -44.5340   26.3770   71.7030 C   0  0  0  0  0  0  0  0  0  0  0  0
  -45.3020   25.2850   71.8510 N   0  0  0  0  0  0  0  0  0  0  0  0
  -46.2170   25.2720   72.9300 C   0  0  0  0  0  0  0  0  0  0  0  0
  -46.3020   26.3790   73.8070 C   0  0  0  0  0  0  0  0  0  0  0  0
  -47.2470   26.2860   74.8660 C   0  0  0  0  0  0  0  0  0  0  0  0
  -48.0930   25.2210   75.1070 C   0  0  0  0  0  0  0  0  0  0  0  0
  -48.9550   25.2710   76.1920 O   0  0  0  0  0  0  0  0  0  0  0  0
  -49.0670   26.4850   76.9430 C   0  0  0  0  0  0  0  0  0  0  0  0
  -48.1110   26.7020   78.1560 C   0  0  0  0  0  0  0  0  0  0  0  0
  -48.1990   28.0410   78.6100 O   0  0  0  0  0  0  0  0  0  0  0  0
  -47.0730   28.5430   79.3000 C   0  0  0  0  0  0  0  0  0  0  0  0
  -45.8480   27.5460   79.2190 C   0  0  0  0  0  0  0  0  0  0  0  0
  -44.6600   28.2420   78.8590 O   0  0  0  0  0  0  0  0  0  0  0  0
  -44.6220   29.6210   79.1940 C   0  0  0  0  0  0  0  0  0  0  0  0
  -44.1700   30.5170   77.9490 C   0  0  0  0  0  0  0  0  0  0  0  0
  -43.9380   29.7620   76.7180 O   0  0  0  0  0  0  0  0  0  0  0  0
  -44.0060   30.4710   75.5140 C   0  0  0  0  0  0  0  0  0  0  0  0
  -43.3390   31.6910   75.4320 C   0  0  0  0  0  0  0  0  0  0  0  0
  -48.0060   24.0490   74.2240 C   0  0  0  0  0  0  0  0  0  0  0  0
  -48.8580   22.9500   74.4320 O   0  0  0  0  0  0  0  0  0  0  0  0
  -48.9930   22.3340   75.7420 C   0  0  0  0  0  0  0  0  0  0  0  0
  -47.0940   24.1160   73.1590 C   0  0  0  0  0  0  0  0  0  0  0  0
  -42.7220   33.6190   74.2010 F   0  0  0  0  0  0  0  0  0  0  0  0
  1  3  1  0  0  0  0
  2  3  4  0  0  0  0
  2 26  4  0  0  0  0
  2 31  1  0  0  0  0
  3  4  4  0  0  0  0
  4  5  4  0  0  0  0
  5  6  1  0  0  0  0
  5 25  4  0  0  0  0
  6  7  1  0  0  0  0
  7  8  4  0  0  0  0
  7 12  4  0  0  0  0
  8  9  4  0  0  0  0
  9 10  4  0  0  0  0
 10 11  4  0  0  0  0
 11 12  4  0  0  0  0
 11 30  4  0  0  0  0
 12 13  4  0  0  0  0
 13 14  4  0  0  0  0
 14 15  1  0  0  0  0
 14 27  4  0  0  0  0
 15 16  1  0  0  0  0
 16 17  1  0  0  0  0
 17 18  1  0  0  0  0
 18 19  1  0  0  0  0
 19 20  1  0  0  0  0
 20 21  1  0  0  0  0
 21 22  1  0  0  0  0
 22 23  1  0  0  0  0
 23 24  1  0  0  0  0
 24 25  1  0  0  0  0
 25 26  4  0  0  0  0
 27 28  1  0  0  0  0
 27 30  4  0  0  0  0
 28 29  1  0  0  0  0
M  END
$$$$
