complex
  PyMOL3.0          3D                             0

 46 49  0  0  0  0  0  0  0  0999 V2000
  391.7940  402.5300  312.5200 Cl  0  0  0  0  0  0  0  0  0  0  0  0
  397.2770  405.9160  306.2230 N   0  0  0  0  0  0  0  0  0  0  0  0
  397.8850  405.0370  308.4360 O   0  0  0  0  0  0  0  0  0  0  0  0
  395.9610  405.4600  304.2040 C   0  0  0  0  0  0  0  0  0  0  0  0
  395.0510  403.7320  307.3660 N   0  0  0  0  0  0  0  0  0  0  0  0
  395.2030  401.4190  308.1250 O   0  0  0  0  0  0  0  0  0  0  0  0
  397.3550  405.7130  304.7830 C   0  0  0  0  0  0  0  0  0  0  0  0
  393.3850  401.1430  302.3300 O   0  0  0  0  0  0  0  0  0  0  0  0
  396.8850  405.3380  307.5000 C   0  0  0  0  0  0  0  0  0  0  0  0
  395.5030  400.8330  301.6050 O   0  0  0  0  0  0  0  0  0  0  0  0
  395.4200  405.0530  307.8510 C   0  0  0  0  0  0  0  0  0  0  0  0
  394.6080  403.6350  303.0910 O   0  0  0  0  0  0  0  0  0  0  0  0
  394.6790  402.3350  307.2140 C   0  0  0  0  0  0  0  0  0  0  0  0
  396.4510  403.1510  304.3030 O   0  0  0  0  0  0  0  0  0  0  0  0
  393.7050  401.8300  306.1520 C   0  0  0  0  0  0  0  0  0  0  0  0
  391.9730  398.3170  300.1050 O   0  0  0  0  0  0  0  0  0  0  0  0
  393.9600  400.7460  305.4460 C   0  0  0  0  0  0  0  0  0  0  0  0
  389.7640  404.0620  310.9210 O   0  0  0  0  0  0  0  0  0  0  0  0
  392.9190  400.2820  304.4250 C   0  0  0  0  0  0  0  0  0  0  0  0
  393.4110  399.9290  303.0260 C   0  0  0  0  0  0  0  0  0  0  0  0
  394.6360  401.5910  301.8940 C   0  0  0  0  0  0  0  0  0  0  0  0
  394.8350  403.1010  301.8080 C   0  0  0  0  0  0  0  0  0  0  0  0
  395.7190  403.9830  303.8740 C   0  0  0  0  0  0  0  0  0  0  0  0
  396.1540  403.5490  301.1760 C   0  0  0  0  0  0  0  0  0  0  0  0
  395.9050  404.3150  299.8750 C   0  0  0  0  0  0  0  0  0  0  0  0
  394.4670  404.8260  299.7630 C   0  0  0  0  0  0  0  0  0  0  0  0
  396.3440  403.5270  298.6430 C   0  0  0  0  0  0  0  0  0  0  0  0
  392.4130  399.0000  302.3180 C   0  0  0  0  0  0  0  0  0  0  0  0
  391.8570  397.9030  303.2170 C   0  0  0  0  0  0  0  0  0  0  0  0
  392.9510  398.4140  301.0180 C   0  0  0  0  0  0  0  0  0  0  0  0
  392.7240  399.4470  299.8360 C   0  0  0  0  0  0  0  0  0  0  0  0
  393.0280  400.0020  298.4490 C   0  0  0  0  0  0  0  0  0  0  0  0
  392.0030  400.2440  297.5510 C   0  0  0  0  0  0  0  0  0  0  0  0
  392.3060  400.7460  296.2860 C   0  0  0  0  0  0  0  0  0  0  0  0
  393.6360  400.9970  295.9400 C   0  0  0  0  0  0  0  0  0  0  0  0
  394.6500  400.7460  296.8530 C   0  0  0  0  0  0  0  0  0  0  0  0
  394.3360  400.2510  298.0980 C   0  0  0  0  0  0  0  0  0  0  0  0
  395.1830  405.1320  309.3650 C   0  0  0  0  0  0  0  0  0  0  0  0
  393.7380  404.8370  309.7870 C   0  0  0  0  0  0  0  0  0  0  0  0
  393.4550  403.9370  310.8220 C   0  0  0  0  0  0  0  0  0  0  0  0
  392.1370  403.6810  311.1980 C   0  0  0  0  0  0  0  0  0  0  0  0
  391.0940  404.3180  310.5510 C   0  0  0  0  0  0  0  0  0  0  0  0
  391.3570  405.2020  309.5310 C   0  0  0  0  0  0  0  0  0  0  0  0
  392.6630  405.4590  309.1550 C   0  0  0  0  0  0  0  0  0  0  0  0
  389.5950  403.8050  312.2870 C   0  0  0  0  0  0  0  0  0  0  0  0
  395.5940  406.4100  303.0620 C   0  0  0  0  0  0  0  0  0  0  0  0
  1 41  1  0  0  0  0
  2  7  1  0  0  0  0
  2  9  1  0  0  0  0
  3  9  1  0  0  0  0
  4  7  1  0  0  0  0
  4 23  1  0  0  0  0
  4 46  1  0  0  0  0
  5 11  1  0  0  0  0
  5 13  1  0  0  0  0
  6 13  1  0  0  0  0
  8 20  1  0  0  0  0
  8 21  1  0  0  0  0
  9 11  1  0  0  0  0
 10 21  2  0  0  0  0
 11 38  1  0  0  0  0
 12 22  1  0  0  0  0
 12 23  1  0  0  0  0
 13 15  1  0  0  0  0
 14 23  2  0  0  0  0
 15 17  1  0  0  0  0
 16 30  1  0  0  0  0
 16 31  1  0  0  0  0
 17 19  1  0  0  0  0
 18 42  1  0  0  0  0
 18 45  1  0  0  0  0
 19 20  1  0  0  0  0
 20 28  1  0  0  0  0
 21 22  1  0  0  0  0
 22 24  1  0  0  0  0
 24 25  1  0  0  0  0
 25 26  1  0  0  0  0
 25 27  1  0  0  0  0
 28 29  1  0  0  0  0
 28 30  1  0  0  0  0
 30 31  1  0  0  0  0
 31 32  1  0  0  0  0
 32 33  4  0  0  0  0
 32 37  4  0  0  0  0
 33 34  4  0  0  0  0
 34 35  4  0  0  0  0
 35 36  4  0  0  0  0
 36 37  4  0  0  0  0
 38 39  1  0  0  0  0
 39 40  4  0  0  0  0
 39 44  4  0  0  0  0
 40 41  4  0  0  0  0
 41 42  4  0  0  0  0
 42 43  4  0  0  0  0
 43 44  4  0  0  0  0
M  END
$$$$
