complex
  PyMOL3.0          3D                             0

 30 32  0  0  0  0  0  0  0  0999 V2000
   78.6660   97.6440  122.4270 P   0  0  0  0  0  0  0  0  0  0  0  0
   77.1220   96.2800  124.5290 P   0  0  0  0  0  0  0  0  0  0  0  0
   76.2210   98.4770  126.3400 P   0  0  0  0  0  0  0  0  0  0  0  0
   79.5210   97.4860  119.9500 C   0  0  0  0  0  0  0  0  0  0  0  0
   79.0650   96.8220  121.1440 O   0  0  0  0  0  0  0  0  0  0  0  0
   80.7080   96.7440  119.4010 C   0  0  0  0  0  0  0  0  0  0  0  0
   81.5640   96.3060  120.4740 O   0  0  0  0  0  0  0  0  0  0  0  0
   80.3670   95.4920  118.5890 C   0  0  0  0  0  0  0  0  0  0  0  0
   80.6880   95.7180  117.2170 O   0  0  0  0  0  0  0  0  0  0  0  0
   81.2500   94.4000  119.1910 C   0  0  0  0  0  0  0  0  0  0  0  0
   82.2600   95.1740  120.0170 C   0  0  0  0  0  0  0  0  0  0  0  0
   86.5100   93.5870  122.4020 N   0  0  0  0  0  0  0  0  0  0  0  0
   77.5310   98.5450  122.1460 O   0  5  0  0  0  0  0  0  0  0  0  0
   75.8240   95.9790  123.8930 O   0  5  0  0  0  0  0  0  0  0  0  0
   75.4710   97.5350  127.2170 O   0  0  0  0  0  0  0  0  0  0  0  0
   86.3180   94.2760  121.2760 C   0  0  0  0  0  0  0  0  0  0  0  0
   79.9190   98.3280  122.9680 O   0  0  0  0  0  0  0  0  0  0  0  0
   77.6370   95.2330  125.5170 O   0  0  0  0  0  0  0  0  0  0  0  0
   77.2210   99.3530  127.0890 O   0  5  0  0  0  0  0  0  0  0  0  0
   85.1710   94.6580  120.7150 N   0  0  0  0  0  0  0  0  0  0  0  0
   78.2700   96.5150  123.4530 O   0  0  0  0  0  0  0  0  0  0  0  0
   77.1040   97.6750  125.2850 O   0  0  0  0  0  0  0  0  0  0  0  0
   75.3220   99.3680  125.4910 O   0  0  0  0  0  0  0  0  0  0  0  0
   84.1240   94.2540  121.4390 C   0  0  0  0  0  0  0  0  0  0  0  0
   84.1600   93.5330  122.6180 C   0  0  0  0  0  0  0  0  0  0  0  0
   85.4330   93.1910  123.1120 C   0  0  0  0  0  0  0  0  0  0  0  0
   85.6330   92.4990  124.2380 N   0  0  0  0  0  0  0  0  0  0  0  0
   82.8780   93.2900  123.0850 N   0  0  0  0  0  0  0  0  0  0  0  0
   82.1100   93.8590  122.1880 C   0  0  0  0  0  0  0  0  0  0  0  0
   82.7940   94.4630  121.1680 N   0  0  0  0  0  0  0  0  0  0  0  0
  1  5  1  0  0  0  0
  1 13  1  0  0  0  0
  1 17  2  0  0  0  0
  1 21  1  0  0  0  0
  2 14  1  0  0  0  0
  2 18  2  0  0  0  0
  2 21  1  0  0  0  0
  2 22  1  0  0  0  0
  3 15  1  0  0  0  0
  3 19  1  0  0  0  0
  3 22  1  0  0  0  0
  3 23  2  0  0  0  0
  4  5  1  0  0  0  0
  4  6  1  0  0  0  0
  6  7  1  0  0  0  0
  6  8  1  0  0  0  0
  7 11  1  0  0  0  0
  8  9  1  0  0  0  0
  8 10  1  0  0  0  0
 10 11  1  0  0  0  0
 11 30  1  0  0  0  0
 12 16  4  0  0  0  0
 12 26  4  0  0  0  0
 16 20  4  0  0  0  0
 20 24  4  0  0  0  0
 24 25  4  0  0  0  0
 24 30  4  0  0  0  0
 25 26  4  0  0  0  0
 25 28  4  0  0  0  0
 26 27  1  0  0  0  0
 28 29  4  0  0  0  0
 29 30  4  0  0  0  0
M  END
$$$$
