complex
  PyMOL3.0          3D                             0

  4  3  0  0  0  0  0  0  0  0999 V2000
   37.7710   18.2860   33.3160 C   0  0  0  0  0  0  0  0  0  0  0  0
   37.6220   19.6960   33.5320 O   0  0  0  0  0  0  0  0  0  0  0  0
   37.2950   17.9230   31.9140 C   0  0  0  0  0  0  0  0  0  0  0  0
   35.8900   18.1830   31.7960 O   0  0  0  0  0  0  0  0  0  0  0  0
  1  2  1  0  0  0  0
  1  3  1  0  0  0  0
  3  4  1  0  0  0  0
M  END
$$$$
