complex
  PyMOL3.0          3D                             0

  5  4  0  0  0  0  0  0  0  0999 V2000
  -85.7380  -93.3930   12.2480 O   0  0  0  0  0  0  0  0  0  0  0  0
  -87.9580  -92.6530   12.0350 O   0  0  0  0  0  0  0  0  0  0  0  0
  -86.5940  -91.9950   13.9280 O   0  5  0  0  0  0  0  0  0  0  0  0
  -87.3360  -94.2260   13.7950 O   0  0  0  0  0  0  0  0  0  0  0  0
  -86.9150  -93.0690   13.0030 S   0  0  0  0  0  0  0  0  0  0  0  0
  1  5  1  0  0  0  0
  2  5  1  0  0  0  0
  3  5  1  0  0  0  0
  4  5  2  0  0  0  0
M  END
$$$$
