complex
  PyMOL3.0          3D                             0

  5  4  0  0  0  0  0  0  0  0999 V2000
  -78.8680  -68.6310   -5.2950 O   0  0  0  0  0  0  0  0  0  0  0  0
  -78.1710  -70.8940   -4.9890 O   0  0  0  0  0  0  0  0  0  0  0  0
  -76.5270  -69.1060   -4.8490 O   0  5  0  0  0  0  0  0  0  0  0  0
  -78.1380  -69.3130   -3.0850 O   0  0  0  0  0  0  0  0  0  0  0  0
  -77.9310  -69.4840   -4.5700 S   0  0  0  0  0  0  0  0  0  0  0  0
  1  5  1  0  0  0  0
  2  5  1  0  0  0  0
  3  5  1  0  0  0  0
  4  5  2  0  0  0  0
M  END
$$$$
