complex
  PyMOL3.0          3D                             0

 27 29  0  0  0  0  0  0  0  0999 V2000
  139.0550  173.5150  104.8280 P   0  0  0  0  0  0  0  0  0  0  0  0
  136.6010  173.2340  106.0960 P   0  0  0  0  0  0  0  0  0  0  0  0
  139.8650  174.7160  102.6540 C   0  0  0  0  0  0  0  0  0  0  0  0
  139.5320  173.4870  103.2920 O   0  0  0  0  0  0  0  0  0  0  0  0
  141.1460  174.5980  101.8370 C   0  0  0  0  0  0  0  0  0  0  0  0
  141.2000  173.3830  101.0890 O   0  0  0  0  0  0  0  0  0  0  0  0
  141.2630  175.7310  100.8270 C   0  0  0  0  0  0  0  0  0  0  0  0
  142.2400  176.6800  101.2580 O   0  0  0  0  0  0  0  0  0  0  0  0
  141.7200  175.0810   99.5390 C   0  0  0  0  0  0  0  0  0  0  0  0
  142.9320  175.6840   99.0830 O   0  0  0  0  0  0  0  0  0  0  0  0
  141.9550  173.6260   99.8990 C   0  0  0  0  0  0  0  0  0  0  0  0
  143.5170  171.0410   95.6400 N   0  0  0  0  0  0  0  0  0  0  0  0
  139.1550  174.9420  105.3050 O   0  5  0  0  0  0  0  0  0  0  0  0
  135.2660  172.6600  105.6900 O   0  0  0  0  0  0  0  0  0  0  0  0
  144.2140  171.8030   96.5010 C   0  0  0  0  0  0  0  0  0  0  0  0
  139.7870  172.4340  105.5810 O   0  0  0  0  0  0  0  0  0  0  0  0
  136.5820  174.7110  106.4010 O   0  5  0  0  0  0  0  0  0  0  0  0
  143.6680  172.4130   97.5650 N   0  0  0  0  0  0  0  0  0  0  0  0
  137.4980  173.1240  104.7640 O   0  0  0  0  0  0  0  0  0  0  0  0
  137.3530  172.4070  107.1080 O   0  0  0  0  0  0  0  0  0  0  0  0
  142.3470  172.2870   97.8330 C   0  0  0  0  0  0  0  0  0  0  0  0
  141.5160  171.4690   96.9400 C   0  0  0  0  0  0  0  0  0  0  0  0
  142.1910  170.8300   95.7880 C   0  0  0  0  0  0  0  0  0  0  0  0
  141.5010  170.0600   94.9140 N   0  0  0  0  0  0  0  0  0  0  0  0
  140.2640  171.5140   97.4320 N   0  0  0  0  0  0  0  0  0  0  0  0
  140.2910  172.2920   98.5440 C   0  0  0  0  0  0  0  0  0  0  0  0
  141.5340  172.7500   98.7810 N   0  0  0  0  0  0  0  0  0  0  0  0
  1  4  1  0  0  0  0
  1 13  1  0  0  0  0
  1 16  2  0  0  0  0
  1 19  1  0  0  0  0
  2 14  1  0  0  0  0
  2 17  1  0  0  0  0
  2 19  1  0  0  0  0
  2 20  2  0  0  0  0
  3  4  1  0  0  0  0
  3  5  1  0  0  0  0
  5  6  1  0  0  0  0
  5  7  1  0  0  0  0
  6 11  1  0  0  0  0
  7  8  1  0  0  0  0
  7  9  1  0  0  0  0
  9 10  1  0  0  0  0
  9 11  1  0  0  0  0
 11 27  1  0  0  0  0
 12 15  4  0  0  0  0
 12 23  4  0  0  0  0
 15 18  4  0  0  0  0
 18 21  4  0  0  0  0
 21 22  4  0  0  0  0
 21 27  4  0  0  0  0
 22 23  4  0  0  0  0
 22 25  4  0  0  0  0
 23 24  1  0  0  0  0
 25 26  4  0  0  0  0
 26 27  4  0  0  0  0
M  END
$$$$
