complex
  PyMOL3.0          3D                             0

  6  5  0  0  0  0  0  0  0  0999 V2000
  -28.6100   18.7510  -60.1520 C   0  0  0  0  0  0  0  0  0  0  0  0
  -27.9520   19.9760  -60.0560 O   0  0  0  0  0  0  0  0  0  0  0  0
  -29.4220   18.5740  -58.8480 C   0  0  0  0  0  0  0  0  0  0  0  0
  -29.8360   17.2630  -58.6680 O   0  0  0  0  0  0  0  0  0  0  0  0
  -30.6150   19.5500  -58.9860 C   0  0  0  0  0  0  0  0  0  0  0  0
  -31.7590   18.7700  -59.1340 O   0  0  0  0  0  0  0  0  0  0  0  0
  1  2  1  0  0  0  0
  1  3  1  0  0  0  0
  3  4  1  0  0  0  0
  3  5  1  0  0  0  0
  5  6  1  0  0  0  0
M  END
$$$$
