complex
  PyMOL3.0          3D                             0

 17 26  0  0  0  0  0  0  0  0999 V2000
  -32.8470  -11.3730   38.6810 S   0  0  0  0  0  0  0  0  0  0  0  0
  -34.6740   -9.4480   36.2520 S   0  0  0  0  0  0  0  0  0  0  0  0
  -31.1500   -8.6610   37.2970 S   0  0  0  0  0  0  0  0  0  0  0  0
  -31.8080  -11.3250   35.1620 S   0  0  0  0  0  0  0  0  0  0  0  0
  -33.5720   -5.0940   31.4720 S   0  0  0  0  0  0  0  0  0  0  0  0
  -35.4900   -8.3070   31.8990 S   0  0  0  0  0  0  0  0  0  0  0  0
  -35.4570   -5.8310   34.5990 S   0  0  0  0  0  0  0  0  0  0  0  0
  -37.2130   -4.9290   31.5110 S   0  0  0  0  0  0  0  0  0  0  0  0
  -32.2160   -7.6420   33.9050 S   0  0  0  0  0  0  0  0  0  0  0  0
  -32.5240   -9.2230   35.4910 Fe  0  0  0  0  0  0  0  0  0  0  0  0
  -31.1770  -10.8360   37.2370 Fe  0  0  0  0  0  0  0  0  0  0  0  0
  -33.6140  -11.4570   36.5700 Fe  0  0  0  0  0  0  0  0  0  0  0  0
  -33.1700   -9.2340   38.0710 Fe  0  0  0  0  0  0  0  0  0  0  0  0
  -36.7700   -6.7260   32.9920 Fe  0  0  0  0  0  0  0  0  0  0  0  0
  -35.3370   -4.3700   32.7280 Fe  0  0  0  0  0  0  0  0  0  0  0  0
  -35.4300   -6.2370   30.7730 Fe  0  0  0  0  0  0  0  0  0  0  0  0
  -34.1090   -6.8030   33.0510 Fe  0  0  0  0  0  0  0  0  0  0  0  0
  1 11  1  0  0  0  0
  1 12  1  0  0  0  0
  1 13  1  0  0  0  0
  2 10  1  0  0  0  0
  2 12  1  0  0  0  0
  2 13  1  0  0  0  0
  3 10  1  0  0  0  0
  3 11  1  0  0  0  0
  3 13  1  0  0  0  0
  4 10  1  0  0  0  0
  4 11  1  0  0  0  0
  4 12  1  0  0  0  0
  5 15  1  0  0  0  0
  5 16  1  0  0  0  0
  5 17  1  0  0  0  0
  6 14  1  0  0  0  0
  6 16  1  0  0  0  0
  6 17  1  0  0  0  0
  7 14  1  0  0  0  0
  7 15  1  0  0  0  0
  7 17  1  0  0  0  0
  8 14  1  0  0  0  0
  8 15  1  0  0  0  0
  8 16  1  0  0  0  0
  9 10  1  0  0  0  0
  9 17  1  0  0  0  0
M  END
$$$$
