complex
  PyMOL3.0          3D                             0

  6  5  0  0  0  0  0  0  0  0999 V2000
   28.1900  -27.8700   -6.7740 C   0  0  0  0  0  0  0  0  0  0  0  0
   27.1770  -28.1650   -5.6920 C   0  0  0  0  0  0  0  0  0  0  0  0
   26.4710  -29.4850   -5.8570 C   0  0  0  0  0  0  0  0  0  0  0  0
   25.3510  -29.7270   -4.8760 C   0  0  0  0  0  0  0  0  0  0  0  0
   25.7730  -29.6460   -3.4340 C   0  0  0  0  0  0  0  0  0  0  0  0
   24.6620  -29.9580   -2.4640 C   0  0  0  0  0  0  0  0  0  0  0  0
  1  2  1  0  0  0  0
  2  3  1  0  0  0  0
  3  4  1  0  0  0  0
  4  5  1  0  0  0  0
  5  6  1  0  0  0  0
M  END
$$$$
