complex
  PyMOL3.0          3D                             0

 11 11  0  0  0  0  0  0  0  0999 V2000
  -22.7560  -27.7550  -30.3250 C   0  0  0  0  0  0  0  0  0  0  0  0
  -22.1180  -28.0150  -28.9500 C   0  0  0  0  0  0  0  0  0  0  0  0
  -22.6650  -27.1430  -27.9650 O   0  0  0  0  0  0  0  0  0  0  0  0
  -22.4240  -29.4470  -28.5050 C   0  0  0  0  0  0  0  0  0  0  0  0
  -21.9630  -29.7000  -27.1820 O   0  0  0  0  0  0  0  0  0  0  0  0
  -23.9200  -29.7580  -28.6220 C   0  0  0  0  0  0  0  0  0  0  0  0
  -24.1520  -31.1060  -28.2760 O   0  0  0  0  0  0  0  0  0  0  0  0
  -24.3720  -29.5080  -30.0670 C   0  0  0  0  0  0  0  0  0  0  0  0
  -24.1350  -28.1220  -30.3650 O   0  0  0  0  0  0  0  0  0  0  0  0
  -25.8430  -29.8130  -30.2980 C   0  0  0  0  0  0  0  0  0  0  0  0
  -26.5570  -28.5860  -30.4100 O   0  0  0  0  0  0  0  0  0  0  0  0
  1  2  1  0  0  0  0
  1  9  1  0  0  0  0
  2  3  1  0  0  0  0
  2  4  1  0  0  0  0
  4  5  1  0  0  0  0
  4  6  1  0  0  0  0
  6  7  1  0  0  0  0
  6  8  1  0  0  0  0
  8  9  1  0  0  0  0
  8 10  1  0  0  0  0
 10 11  1  0  0  0  0
M  END
$$$$
