complex
  PyMOL3.0          3D                             0

 25 28  0  0  0  0  0  0  0  0999 V2000
   44.7930   50.6040  117.2610 Cl  0  0  0  0  0  0  0  0  0  0  0  0
   48.9800   48.0560  113.6560 C   0  0  0  0  0  0  0  0  0  0  0  0
   50.2100   48.0640  112.9720 C   0  0  0  0  0  0  0  0  0  0  0  0
   51.0310   46.9250  113.0690 C   0  0  0  0  0  0  0  0  0  0  0  0
   50.6460   45.8460  113.8040 C   0  0  0  0  0  0  0  0  0  0  0  0
   49.4260   45.8410  114.4840 C   0  0  0  0  0  0  0  0  0  0  0  0
   48.6020   46.9290  114.4110 C   0  0  0  0  0  0  0  0  0  0  0  0
   49.6370   50.3090  112.2000 C   0  0  0  0  0  0  0  0  0  0  0  0
   50.5510   49.2370  112.2140 C   0  0  0  0  0  0  0  0  0  0  0  0
   48.1150   49.1200  113.6170 N   0  0  0  0  0  0  0  0  0  0  0  0
   48.4080   50.1890  112.9390 C   0  0  0  0  0  0  0  0  0  0  0  0
   51.1490   51.4770  110.7940 C   0  0  0  0  0  0  0  0  0  0  0  0
   52.0470   50.4470  110.7960 N   0  0  0  0  0  0  0  0  0  0  0  0
   51.7520   49.3580  111.4890 C   0  0  0  0  0  0  0  0  0  0  0  0
   49.9670   51.4580  111.4600 C   0  0  0  0  0  0  0  0  0  0  0  0
   47.5070   51.2160  112.9380 N   0  0  0  0  0  0  0  0  0  0  0  0
   46.3150   51.4030  113.6630 C   0  0  0  0  0  0  0  0  0  0  0  0
   46.1710   50.9500  114.9760 C   0  0  0  0  0  0  0  0  0  0  0  0
   44.9760   51.1740  115.6290 C   0  0  0  0  0  0  0  0  0  0  0  0
   43.9290   51.8310  115.0320 C   0  0  0  0  0  0  0  0  0  0  0  0
   44.0830   52.2780  113.7420 C   0  0  0  0  0  0  0  0  0  0  0  0
   45.2630   52.0720  113.0550 C   0  0  0  0  0  0  0  0  0  0  0  0
   49.0160   44.6530  115.2800 C   0  0  0  0  0  0  0  0  0  0  0  0
   49.6430   43.6000  115.1100 O   0  0  0  0  0  0  0  0  0  0  0  0
   48.0650   44.7810  116.0580 O   0  0  0  0  0  0  0  0  0  0  0  0
  1 19  1  0  0  0  0
  2  3  4  0  0  0  0
  2  7  4  0  0  0  0
  2 10  4  0  0  0  0
  3  4  4  0  0  0  0
  3  9  4  0  0  0  0
  4  5  4  0  0  0  0
  5  6  4  0  0  0  0
  6  7  4  0  0  0  0
  6 23  1  0  0  0  0
  8  9  4  0  0  0  0
  8 11  4  0  0  0  0
  8 15  4  0  0  0  0
  9 14  4  0  0  0  0
 10 11  4  0  0  0  0
 11 16  1  0  0  0  0
 12 13  4  0  0  0  0
 12 15  4  0  0  0  0
 13 14  4  0  0  0  0
 16 17  1  0  0  0  0
 17 18  4  0  0  0  0
 17 22  4  0  0  0  0
 18 19  4  0  0  0  0
 19 20  4  0  0  0  0
 20 21  4  0  0  0  0
 21 22  4  0  0  0  0
 23 24  4  0  0  0  0
 23 25  4  0  0  0  0
M  END
$$$$
