complex
  PyMOL3.0          3D                             0

  5  4  0  0  0  0  0  0  0  0999 V2000
   14.0130   63.0970   55.0970 P   0  0  0  0  0  0  0  0  0  0  0  0
   15.3260   63.5610   54.4790 O   0  0  0  0  0  0  0  0  0  0  0  0
   12.9150   64.1050   54.7640 O   0  0  0  0  0  0  0  0  0  0  0  0
   13.6430   61.7270   54.5370 O   0  5  0  0  0  0  0  0  0  0  0  0
   14.1740   62.9940   56.6140 O   0  0  0  0  0  0  0  0  0  0  0  0
  1  2  1  0  0  0  0
  1  3  1  0  0  0  0
  1  4  1  0  0  0  0
  1  5  2  0  0  0  0
M  END
$$$$
