complex
  PyMOL3.0          3D                             0

 12 11  0  0  0  0  0  0  0  0999 V2000
   15.0660  -14.4000   63.0500 N   0  0  0  0  0  0  0  0  0  0  0  0
   16.0140  -13.3480   62.6970 C   0  0  0  0  0  0  0  0  0  0  0  0
   16.1890  -13.2410   61.1850 C   0  0  0  0  0  0  0  0  0  0  0  0
   16.5680  -12.1890   60.6710 O   0  0  0  0  0  0  0  0  0  0  0  0
   17.3680  -13.5910   63.3660 C   0  0  0  0  0  0  0  0  0  0  0  0
   17.3880  -13.2730   64.8490 C   0  0  0  0  0  0  0  0  0  0  0  0
   18.7810  -13.4250   65.4420 C   0  0  0  0  0  0  0  0  0  0  0  0
   18.8160  -13.0190   66.9110 C   0  0  0  0  0  0  0  0  0  0  0  0
   17.9900  -13.9110   67.7780 N   0  0  0  0  0  0  0  0  0  0  0  0
   16.7390  -13.5860   68.0970 C   0  0  0  0  0  0  0  0  0  0  0  0
   16.2410  -12.5300   67.6760 O   0  0  0  0  0  0  0  0  0  0  0  0
   16.0690  -14.3400   68.8170 O   0  0  0  0  0  0  0  0  0  0  0  0
  1  2  1  0  0  0  0
  2  3  1  0  0  0  0
  2  5  1  0  0  0  0
  3  4  2  0  0  0  0
  5  6  1  0  0  0  0
  6  7  1  0  0  0  0
  7  8  1  0  0  0  0
  8  9  1  0  0  0  0
  9 10  1  0  0  0  0
 10 11  4  0  0  0  0
 10 12  4  0  0  0  0
M  END
$$$$
