complex
  PyMOL3.0          3D                             0

  8  7  0  0  0  0  0  0  0  0999 V2000
  -52.3580   -7.5340    7.7480 N   0  0  0  0  0  0  0  0  0  0  0  0
  -50.9990   -7.4110    8.2650 C   0  0  0  0  0  0  0  0  0  0  0  0
  -49.9660   -7.8470    7.2220 C   0  0  0  0  0  0  0  0  0  0  0  0
  -48.9650   -7.1460    7.0660 O   0  0  0  0  0  0  0  0  0  0  0  0
  -50.8270   -8.2280    9.5430 C   0  0  0  0  0  0  0  0  0  0  0  0
  -51.6330   -7.6700   10.6560 C   0  0  0  0  0  0  0  0  0  0  0  0
  -51.1900  -10.7130   11.7030 C   0  0  0  0  0  0  0  0  0  0  0  0
  -51.6080   -8.9240   12.1410 Se  0  0  0  0  0  0  0  0  0  0  0  0
  1  2  1  0  0  0  0
  2  3  1  0  0  0  0
  2  5  1  0  0  0  0
  3  4  2  0  0  0  0
  5  6  1  0  0  0  0
  6  8  1  0  0  0  0
  7  8  1  0  0  0  0
M  END
$$$$
