complex
  PyMOL3.0          3D                             0

 45 51  0  0  0  0  0  0  0  0999 V2000
   34.5200   -5.5810  -22.6640 C   0  0  0  0  0  0  0  0  0  0  0  0
   34.2510   -4.2820  -22.7480 N   0  0  0  0  0  0  0  0  0  0  0  0
   34.5980   -2.8950  -16.8490 O   0  0  0  0  0  0  0  0  0  0  0  0
   34.7760   -6.2160  -21.4450 C   0  0  0  0  0  0  0  0  0  0  0  0
   34.7690   -0.3900  -14.9910 N   0  0  0  0  0  0  0  0  0  0  0  0
   31.3500   -4.7200  -11.1170 O   0  0  0  0  0  0  0  0  0  0  0  0
   34.7460   -5.4330  -20.2500 C   0  0  0  0  0  0  0  0  0  0  0  0
   34.3230    0.0600  -13.8390 N   0  0  0  0  0  0  0  0  0  0  0  0
   29.7650   -6.0500  -11.8140 O   0  0  0  0  0  0  0  0  0  0  0  0
   34.4640   -4.0740  -20.3870 C   0  0  0  0  0  0  0  0  0  0  0  0
   31.1030   -3.1570  -13.4670 N   0  0  0  0  0  0  0  0  0  0  0  0
   26.5310   -5.0550  -16.2390 O   0  0  0  0  0  0  0  0  0  0  0  0
   34.2170   -3.5260  -21.6640 C   0  0  0  0  0  0  0  0  0  0  0  0
   34.9870   -5.9740  -18.9660 C   0  0  0  0  0  0  0  0  0  0  0  0
   34.9420   -5.1430  -17.8310 C   0  0  0  0  0  0  0  0  0  0  0  0
   34.6540   -3.7690  -17.9830 C   0  0  0  0  0  0  0  0  0  0  0  0
   34.4180   -3.2360  -19.2460 C   0  0  0  0  0  0  0  0  0  0  0  0
   33.9910   -1.6150  -17.0970 C   0  0  0  0  0  0  0  0  0  0  0  0
   33.8150   -0.9760  -15.7130 C   0  0  0  0  0  0  0  0  0  0  0  0
   33.0100   -0.2110  -13.7330 C   0  0  0  0  0  0  0  0  0  0  0  0
   32.6180   -0.8910  -14.9220 C   0  0  0  0  0  0  0  0  0  0  0  0
   35.1220    0.7340  -12.8490 C   0  0  0  0  0  0  0  0  0  0  0  0
   31.1630   -1.4020  -15.2590 C   0  0  0  0  0  0  0  0  0  0  0  0
   30.5970   -2.4510  -14.5000 C   0  0  0  0  0  0  0  0  0  0  0  0
   29.2960   -2.8730  -14.7720 C   0  0  0  0  0  0  0  0  0  0  0  0
   28.5660   -2.2900  -15.8140 C   0  0  0  0  0  0  0  0  0  0  0  0
   29.1340   -1.2550  -16.5730 C   0  0  0  0  0  0  0  0  0  0  0  0
   30.4320   -0.8090  -16.2790 C   0  0  0  0  0  0  0  0  0  0  0  0
   30.1900   -4.0520  -13.0570 C   0  0  0  0  0  0  0  0  0  0  0  0
   29.0190   -3.9340  -13.8290 C   0  0  0  0  0  0  0  0  0  0  0  0
   30.4430   -4.9960  -11.9310 C   0  0  0  0  0  0  0  0  0  0  0  0
   27.6930   -4.7480  -13.7470 C   0  0  0  0  0  0  0  0  0  0  0  0
   27.7270   -6.0660  -14.4610 C   0  0  0  0  0  0  0  0  0  0  0  0
   27.6400   -5.9270  -15.9740 C   0  0  0  0  0  0  0  0  0  0  0  0
   26.1950   -4.9020  -17.6030 C   0  0  0  0  0  0  0  0  0  0  0  0
   24.9550   -4.2980  -17.9520 C   0  0  0  0  0  0  0  0  0  0  0  0
   24.6100   -4.1320  -19.2770 C   0  0  0  0  0  0  0  0  0  0  0  0
   25.4860   -4.5810  -20.2880 C   0  0  0  0  0  0  0  0  0  0  0  0
   26.7120   -5.1760  -19.9380 C   0  0  0  0  0  0  0  0  0  0  0  0
   27.0660   -5.3300  -18.5930 C   0  0  0  0  0  0  0  0  0  0  0  0
   24.0630   -3.8330  -16.9490 C   0  0  0  0  0  0  0  0  0  0  0  0
   22.8440   -3.2420  -17.2760 C   0  0  0  0  0  0  0  0  0  0  0  0
   22.5050   -3.0880  -18.6320 C   0  0  0  0  0  0  0  0  0  0  0  0
   23.3780   -3.5290  -19.6130 C   0  0  0  0  0  0  0  0  0  0  0  0
   32.0860    0.1580  -12.5120 C   0  0  0  0  0  0  0  0  0  0  0  0
  1  2  4  0  0  0  0
  1  4  4  0  0  0  0
  2 13  4  0  0  0  0
  3 16  1  0  0  0  0
  3 18  1  0  0  0  0
  4  7  4  0  0  0  0
  5  8  4  0  0  0  0
  5 19  4  0  0  0  0
  6 31  4  0  0  0  0
  7 10  4  0  0  0  0
  7 14  4  0  0  0  0
  8 20  4  0  0  0  0
  8 22  1  0  0  0  0
  9 31  4  0  0  0  0
 10 13  4  0  0  0  0
 10 17  4  0  0  0  0
 11 24  4  0  0  0  0
 11 29  4  0  0  0  0
 12 34  1  0  0  0  0
 12 35  1  0  0  0  0
 14 15  4  0  0  0  0
 15 16  4  0  0  0  0
 16 17  4  0  0  0  0
 18 19  1  0  0  0  0
 19 21  4  0  0  0  0
 20 21  4  0  0  0  0
 20 45  1  0  0  0  0
 21 23  1  0  0  0  0
 23 24  4  0  0  0  0
 23 28  4  0  0  0  0
 24 25  4  0  0  0  0
 25 26  4  0  0  0  0
 25 30  4  0  0  0  0
 26 27  4  0  0  0  0
 27 28  4  0  0  0  0
 29 30  4  0  0  0  0
 29 31  1  0  0  0  0
 30 32  1  0  0  0  0
 32 33  1  0  0  0  0
 33 34  1  0  0  0  0
 35 36  4  0  0  0  0
 35 40  4  0  0  0  0
 36 37  4  0  0  0  0
 36 41  4  0  0  0  0
 37 38  4  0  0  0  0
 37 44  4  0  0  0  0
 38 39  4  0  0  0  0
 39 40  4  0  0  0  0
 41 42  4  0  0  0  0
 42 43  4  0  0  0  0
 43 44  4  0  0  0  0
M  END
$$$$
