complex
  PyMOL3.0          3D                             0

 14 14  0  0  0  0  0  0  0  0999 V2000
   89.9190  -17.4620   41.9730 C   0  0  0  0  0  0  0  0  0  0  0  0
   89.5740  -18.6790   42.8260 C   0  0  0  0  0  0  0  0  0  0  0  0
   88.3850  -19.3550   42.3290 N   0  0  0  0  0  0  0  0  0  0  0  0
   89.3890  -18.2640   44.2810 C   0  0  0  0  0  0  0  0  0  0  0  0
   89.1510  -19.4130   45.0860 O   0  0  0  0  0  0  0  0  0  0  0  0
   90.6230  -17.5230   44.7790 C   0  0  0  0  0  0  0  0  0  0  0  0
   90.3970  -17.0310   46.0950 O   0  0  0  0  0  0  0  0  0  0  0  0
   90.9530  -16.3540   43.8530 C   0  0  0  0  0  0  0  0  0  0  0  0
   91.0950  -16.8170   42.5010 O   0  0  0  0  0  0  0  0  0  0  0  0
   92.2490  -15.6660   44.2160 C   0  0  0  0  0  0  0  0  0  0  0  0
   92.3920  -14.4230   43.5430 O   0  0  0  0  0  0  0  0  0  0  0  0
   88.4320  -20.4340   41.5400 C   0  0  0  0  0  0  0  0  0  0  0  0
   89.4940  -20.9300   41.1800 O   0  0  0  0  0  0  0  0  0  0  0  0
   87.1070  -21.0000   41.1230 C   0  0  0  0  0  0  0  0  0  0  0  0
  1  2  1  0  0  0  0
  1  9  1  0  0  0  0
  2  3  1  0  0  0  0
  2  4  1  0  0  0  0
  3 12  1  0  0  0  0
  4  5  1  0  0  0  0
  4  6  1  0  0  0  0
  6  7  1  0  0  0  0
  6  8  1  0  0  0  0
  8  9  1  0  0  0  0
  8 10  1  0  0  0  0
 10 11  1  0  0  0  0
 12 13  2  0  0  0  0
 12 14  1  0  0  0  0
M  END
$$$$
