complex
  PyMOL3.0          3D                             0

 11 11  0  0  0  0  0  0  0  0999 V2000
   25.2080  -27.1610   56.8630 C   0  0  0  0  0  0  0  0  0  0  0  0
   26.1730  -26.8640   55.7230 C   0  0  0  0  0  0  0  0  0  0  0  0
   25.9730  -25.5220   55.2650 O   0  0  0  0  0  0  0  0  0  0  0  0
   25.9670  -27.8330   54.5660 C   0  0  0  0  0  0  0  0  0  0  0  0
   27.0290  -27.6790   53.6190 O   0  0  0  0  0  0  0  0  0  0  0  0
   25.9320  -29.2750   55.0580 C   0  0  0  0  0  0  0  0  0  0  0  0
   25.5100  -30.1330   53.9920 O   0  0  0  0  0  0  0  0  0  0  0  0
   24.9830  -29.4290   56.2410 C   0  0  0  0  0  0  0  0  0  0  0  0
   25.3590  -28.5190   57.2730 O   0  0  0  0  0  0  0  0  0  0  0  0
   25.0120  -30.8530   56.7830 C   0  0  0  0  0  0  0  0  0  0  0  0
   26.1380  -31.0120   57.6530 O   0  0  0  0  0  0  0  0  0  0  0  0
  1  2  1  0  0  0  0
  1  9  1  0  0  0  0
  2  3  1  0  0  0  0
  2  4  1  0  0  0  0
  4  5  1  0  0  0  0
  4  6  1  0  0  0  0
  6  7  1  0  0  0  0
  6  8  1  0  0  0  0
  8  9  1  0  0  0  0
  8 10  1  0  0  0  0
 10 11  1  0  0  0  0
M  END
$$$$
