complex
  PyMOL3.0          3D                             0

 25 28  0  0  0  0  0  0  0  0999 V2000
   33.8230   27.8110  -39.2560 P   0  0  0  0  0  0  0  0  0  0  0  0
   31.3250   27.6720  -40.0710 C   0  0  0  0  0  0  0  0  0  0  0  0
   32.3950   28.5000  -39.5540 O   0  0  0  0  0  0  0  0  0  0  0  0
   30.1340   28.5360  -40.3990 C   0  0  0  0  0  0  0  0  0  0  0  0
   29.6990   29.1890  -39.1880 O   0  0  0  0  0  0  0  0  0  0  0  0
   30.4440   29.6550  -41.3880 C   0  0  0  0  0  0  0  0  0  0  0  0
   29.2910   30.0590  -42.1150 O   0  0  0  0  0  0  0  0  0  0  0  0
   30.9130   30.7620  -40.4540 C   0  0  0  0  0  0  0  0  0  0  0  0
   29.9890   30.5820  -39.2630 C   0  0  0  0  0  0  0  0  0  0  0  0
   32.2390   31.0380  -36.4560 N   0  0  0  0  0  0  0  0  0  0  0  0
   31.8730   30.4820  -37.5900 C   0  0  0  0  0  0  0  0  0  0  0  0
   30.2480   31.8890  -37.1340 C   0  0  0  0  0  0  0  0  0  0  0  0
   30.6670   30.9580  -38.0430 N   0  0  0  0  0  0  0  0  0  0  0  0
   29.1280   32.6220  -37.1570 N   0  0  0  0  0  0  0  0  0  0  0  0
   28.9790   33.4570  -36.1180 C   0  0  0  0  0  0  0  0  0  0  0  0
   29.9010   33.5780  -35.0710 C   0  0  0  0  0  0  0  0  0  0  0  0
   31.0630   32.8040  -35.0520 C   0  0  0  0  0  0  0  0  0  0  0  0
   31.2190   31.9370  -36.1540 C   0  0  0  0  0  0  0  0  0  0  0  0
   31.6690   33.7860  -32.5220 S   0  0  0  0  0  0  0  0  0  0  0  0
   32.0540   32.9360  -33.9740 C   0  0  0  0  0  0  0  0  0  0  0  0
   33.3570   32.4700  -33.9300 C   0  0  0  0  0  0  0  0  0  0  0  0
   34.0380   32.9140  -32.7620 C   0  0  0  0  0  0  0  0  0  0  0  0
   33.2610   33.6530  -31.9400 C   0  0  0  0  0  0  0  0  0  0  0  0
   34.7730   28.9150  -38.8430 O   0  5  0  0  0  0  0  0  0  0  0  0
   33.5990   26.7560  -38.1960 O   0  5  0  0  0  0  0  0  0  0  0  0
  1  3  1  0  0  0  0
  1 24  1  0  0  0  0
  1 25  2  0  0  0  0
  2  3  1  0  0  0  0
  2  4  1  0  0  0  0
  4  5  1  0  0  0  0
  4  6  1  0  0  0  0
  5  9  1  0  0  0  0
  6  7  1  0  0  0  0
  6  8  1  0  0  0  0
  8  9  1  0  0  0  0
  9 13  1  0  0  0  0
 10 11  4  0  0  0  0
 10 18  4  0  0  0  0
 11 13  4  0  0  0  0
 12 13  4  0  0  0  0
 12 14  4  0  0  0  0
 12 18  4  0  0  0  0
 14 15  4  0  0  0  0
 15 16  4  0  0  0  0
 16 17  4  0  0  0  0
 17 18  4  0  0  0  0
 17 20  1  0  0  0  0
 19 20  4  0  0  0  0
 19 23  4  0  0  0  0
 20 21  4  0  0  0  0
 21 22  4  0  0  0  0
 22 23  4  0  0  0  0
M  END
$$$$
