complex
  PyMOL3.0          3D                             0

 48 50  0  0  0  0  0  0  0  0999 V2000
  -39.4610   14.0910   -7.1580 C   0  0  0  0  0  0  0  0  0  0  0  0
  -40.1640   14.9110   -6.2370 O   0  0  0  0  0  0  0  0  0  0  0  0
  -39.6940   12.6240   -6.7750 C   0  0  0  0  0  0  0  0  0  0  0  0
  -39.0200   12.3210   -5.4340 C   0  0  0  0  0  0  0  0  0  0  0  0
  -39.0940   11.7110   -7.8480 C   0  0  0  0  0  0  0  0  0  0  0  0
  -42.7790    8.5650   -3.1550 P   0  0  0  0  0  0  0  0  0  0  0  0
  -42.7480   10.7590   -5.1860 P   0  0  0  0  0  0  0  0  0  0  0  0
  -46.9170    4.8930   -2.9990 P   0  0  0  0  0  0  0  0  0  0  0  0
  -32.6270   22.1750   -8.7430 S   0  0  0  0  0  0  0  0  0  0  0  0
  -33.6910   20.9110   -8.0010 C   0  0  0  0  0  0  0  0  0  0  0  0
  -34.1310   19.8790   -9.0090 C   0  0  0  0  0  0  0  0  0  0  0  0
  -35.1330   18.9710   -8.4700 N   0  0  0  0  0  0  0  0  0  0  0  0
  -35.0160   17.6390   -8.4890 C   0  0  0  0  0  0  0  0  0  0  0  0
  -33.9660   17.0780   -8.7950 O   0  0  0  0  0  0  0  0  0  0  0  0
  -36.2560   16.8440   -8.1390 C   0  0  0  0  0  0  0  0  0  0  0  0
  -36.1930   15.4000   -8.5900 C   0  0  0  0  0  0  0  0  0  0  0  0
  -37.4650   14.7150   -8.4000 N   0  0  0  0  0  0  0  0  0  0  0  0
  -38.0010   14.5170   -7.2040 C   0  0  0  0  0  0  0  0  0  0  0  0
  -37.3640   14.6640   -6.1620 O   0  0  0  0  0  0  0  0  0  0  0  0
  -42.5910    4.0560   -3.6970 C   0  0  0  0  0  0  0  0  0  0  0  0
  -38.7880    0.6310   -3.3180 N   0  0  0  0  0  0  0  0  0  0  0  0
  -41.8260    8.3170   -2.0340 O   0  5  0  0  0  0  0  0  0  0  0  0
  -40.1220    0.5020   -3.3370 C   0  0  0  0  0  0  0  0  0  0  0  0
  -43.1550    4.9210   -2.5780 C   0  0  0  0  0  0  0  0  0  0  0  0
  -44.2310    8.7250   -2.8490 O   0  0  0  0  0  0  0  0  0  0  0  0
  -43.2900    4.2400   -1.3490 O   0  0  0  0  0  0  0  0  0  0  0  0
  -44.4760    5.3680   -3.2040 C   0  0  0  0  0  0  0  0  0  0  0  0
  -41.0580    1.4420   -3.4390 N   0  0  0  0  0  0  0  0  0  0  0  0
  -42.2620    9.8550   -3.9530 O   0  0  0  0  0  0  0  0  0  0  0  0
  -45.4160    4.3010   -3.1150 O   0  0  0  0  0  0  0  0  0  0  0  0
  -40.4970    2.6580   -3.5300 C   0  0  0  0  0  0  0  0  0  0  0  0
  -44.0780    5.5780   -4.6660 C   0  0  0  0  0  0  0  0  0  0  0  0
  -43.3680    9.8990   -6.2380 O   0  5  0  0  0  0  0  0  0  0  0  0
  -42.9040    4.7490   -4.8820 O   0  0  0  0  0  0  0  0  0  0  0  0
  -39.1510    2.9530   -3.5250 C   0  0  0  0  0  0  0  0  0  0  0  0
  -43.7350    6.9980   -5.0450 C   0  0  0  0  0  0  0  0  0  0  0  0
  -43.4860   11.9520   -4.6750 O   0  0  0  0  0  0  0  0  0  0  0  0
  -42.5860    7.4330   -4.2760 O   0  0  0  0  0  0  0  0  0  0  0  0
  -38.2550    1.8730   -3.4120 C   0  0  0  0  0  0  0  0  0  0  0  0
  -36.9320    2.0060   -3.3930 N   0  0  0  0  0  0  0  0  0  0  0  0
  -41.3090   11.2210   -5.7180 O   0  0  0  0  0  0  0  0  0  0  0  0
  -38.9590    4.3250   -3.6370 N   0  0  0  0  0  0  0  0  0  0  0  0
  -47.1370    5.8580   -4.1490 O   0  0  0  0  0  0  0  0  0  0  0  0
  -40.1710    4.8250   -3.7070 C   0  0  0  0  0  0  0  0  0  0  0  0
  -47.8470    3.6970   -3.0780 O   0  5  0  0  0  0  0  0  0  0  0  0
  -41.1460    3.8580   -3.6470 N   0  0  0  0  0  0  0  0  0  0  0  0
  -46.9940    5.5850   -1.6510 O   0  0  0  0  0  0  0  0  0  0  0  0
  -41.1860   12.3340   -6.6420 C   0  0  0  0  0  0  0  0  0  0  0  0
  1  2  1  0  0  0  0
  1  3  1  0  0  0  0
  1 18  1  0  0  0  0
  3  4  1  0  0  0  0
  3  5  1  0  0  0  0
  3 48  1  0  0  0  0
  6 22  1  0  0  0  0
  6 25  2  0  0  0  0
  6 29  1  0  0  0  0
  6 38  1  0  0  0  0
  7 29  1  0  0  0  0
  7 33  1  0  0  0  0
  7 37  2  0  0  0  0
  7 41  1  0  0  0  0
  8 30  1  0  0  0  0
  8 43  1  0  0  0  0
  8 45  1  0  0  0  0
  8 47  2  0  0  0  0
  9 10  1  0  0  0  0
 10 11  1  0  0  0  0
 11 12  1  0  0  0  0
 12 13  1  0  0  0  0
 13 14  2  0  0  0  0
 13 15  1  0  0  0  0
 15 16  1  0  0  0  0
 16 17  1  0  0  0  0
 17 18  1  0  0  0  0
 18 19  2  0  0  0  0
 20 24  1  0  0  0  0
 20 34  1  0  0  0  0
 20 46  1  0  0  0  0
 21 23  4  0  0  0  0
 21 39  4  0  0  0  0
 23 28  4  0  0  0  0
 24 26  1  0  0  0  0
 24 27  1  0  0  0  0
 27 30  1  0  0  0  0
 27 32  1  0  0  0  0
 28 31  4  0  0  0  0
 31 35  4  0  0  0  0
 31 46  4  0  0  0  0
 32 34  1  0  0  0  0
 32 36  1  0  0  0  0
 35 39  4  0  0  0  0
 35 42  4  0  0  0  0
 36 38  1  0  0  0  0
 39 40  1  0  0  0  0
 41 48  1  0  0  0  0
 42 44  4  0  0  0  0
 44 46  4  0  0  0  0
M  END
$$$$
